249
Cu9
Cu    1.278840    0.738337   12.522892
Cu    1.278840    5.168366   12.522892
Cu    1.278840    9.598395   12.522892
Cu    3.836517    0.738337   12.522892
Cu    3.836517    5.168366   12.522892
Cu    3.836517    9.598395   12.522892
Cu    6.394194    0.738337   12.522892
Cu    6.394194    5.168366   12.522892
Cu    6.394194    9.598395   12.522892
Cu    0.000000    2.953352   12.522892
Cu    7.673031    2.953352   12.522892
Cu    0.000000    7.383380   12.522892
Cu    7.673031    7.383380   12.522892
Cu    0.000000   11.813409   12.522892
Cu    7.673031   11.813409   12.522892
Cu    2.557677    2.953352   12.522892
Cu    2.557677    7.383380   12.522892
Cu    2.557677   11.813409   12.522892
Cu    5.115355    2.953352   12.522892
Cu    5.115355    7.383380   12.522892
Cu    5.115355   11.813409   12.522892
Cu    5.115353    1.476677   10.437811
Cu    5.115353    5.906706   10.437811
Cu    5.115353   10.336735   10.437811
Cu    0.000000    1.476677   10.437811
Cu    7.673031    1.476677   10.437811
Cu    0.000000    5.906706   10.437811
Cu    7.673031    5.906706   10.437811
Cu    0.000000   10.336735   10.437811
Cu    7.673031   10.336735   10.437811
Cu    2.557676    1.476677   10.437811
Cu    2.557676    5.906706   10.437811
Cu    2.557676   10.336735   10.437811
Cu    3.836514    3.691691   10.437811
Cu    3.836514    8.121719   10.437811
Cu    3.836514   12.551749   10.437811
Cu    6.394191    3.691691   10.437811
Cu    6.394191    8.121719   10.437811
Cu    6.394191   12.551749   10.437811
Cu    1.278837    3.691691   10.437811
Cu    1.278837    8.121719   10.437811
Cu    1.278837   12.551749   10.437811
Cu    0.000000    0.000000   14.611132
Cu    0.000000   13.290086   14.611132
Cu    7.673031    0.000000   14.611132
Cu    7.673031   13.290086   14.611132
Cu    0.000000    4.430029   14.611132
Cu    7.673031    4.430029   14.611132
Cu    0.000000    8.860058   14.611132
Cu    7.673031    8.860058   14.611132
Cu    2.557677    0.000000   14.611132
Cu    2.557677   13.290086   14.611132
Cu    2.557677    4.430029   14.611132
Cu    2.557677    8.860058   14.611132
Cu    5.115355    0.000000   14.611132
Cu    5.115355   13.290086   14.611132
Cu    5.115355    4.430029   14.611132
Cu    5.115355    8.860058   14.611132
Cu    3.836515    2.215014   14.611132
Cu    3.836515    6.645043   14.611132
Cu    3.836515   11.075072   14.611132
Cu    6.394192    2.215014   14.611132
Cu    6.394192    6.645043   14.611132
Cu    6.394192   11.075072   14.611132
Cu    1.278838    2.215014   14.611132
Cu    1.278838    6.645043   14.611132
Cu    1.278838   11.075072   14.611132
Cu    1.278840    0.738337   18.795013
Cu    1.278840    5.168366   18.795013
Cu    1.278840    9.598395   18.795013
Cu    3.836517    0.738337   18.795013
Cu    3.836517    5.168366   18.795013
Cu    3.836517    9.598395   18.795013
Cu    6.394194    0.738337   18.795013
Cu    6.394194    5.168366   18.795013
Cu    6.394194    9.598395   18.795013
Cu    0.000000    2.953352   18.795013
Cu    7.673031    2.953352   18.795013
Cu    0.000000    7.383380   18.795013
Cu    7.673031    7.383380   18.795013
Cu    0.000000   11.813409   18.795013
Cu    7.673031   11.813409   18.795013
Cu    2.557677    2.953352   18.795013
Cu    2.557677    7.383380   18.795013
Cu    2.557677   11.813409   18.795013
Cu    5.115355    2.953352   18.795013
Cu    5.115355    7.383380   18.795013
Cu    5.115355   11.813409   18.795013
Cu    5.115353    1.476677   16.701511
Cu    5.115353    5.906706   16.701511
Cu    5.115353   10.336735   16.701511
Cu    0.000000    1.476677   16.701511
Cu    7.673031    1.476677   16.701511
Cu    0.000000    5.906706   16.701511
Cu    7.673031    5.906706   16.701511
Cu    0.000000   10.336735   16.701511
Cu    7.673031   10.336735   16.701511
Cu    2.557676    1.476677   16.701511
Cu    2.557676    5.906706   16.701511
Cu    2.557676   10.336735   16.701511
Cu    3.836514    3.691691   16.701511
Cu    3.836514    8.121719   16.701511
Cu    3.836514   12.551749   16.701511
Cu    6.394191    3.691691   16.701511
Cu    6.394191    8.121719   16.701511
Cu    6.394191   12.551749   16.701511
Cu    1.278837    3.691691   16.701511
Cu    1.278837    8.121719   16.701511
Cu    1.278837   12.551749   16.701511
Cu    0.000000    0.000000   20.888514
Cu    0.000000   13.290086   20.888514
Cu    7.673031    0.000000   20.888514
Cu    7.673031   13.290086   20.888514
Cu    0.000000    4.430029   20.888514
Cu    7.673031    4.430029   20.888514
Cu    0.000000    8.860058   20.888514
Cu    7.673031    8.860058   20.888514
Cu    2.557677    0.000000   20.888514
Cu    2.557677   13.290086   20.888514
Cu    2.557677    4.430029   20.888514
Cu    2.557677    8.860058   20.888514
Cu    5.115355    0.000000   20.888514
Cu    5.115355   13.290086   20.888514
Cu    5.115355    4.430029   20.888514
Cu    5.115355    8.860058   20.888514
Cu    3.836515    2.215014   20.888514
Cu    3.836515    6.645043   20.888514
Cu    3.836515   11.075072   20.888514
Cu    6.394192    2.215014   20.888514
Cu    6.394192    6.645043   20.888514
Cu    6.394192   11.075072   20.888514
Cu    1.278838    2.215014   20.888514
Cu    1.278838    6.645043   20.888514
Cu    1.278838   11.075072   20.888514
Cu    1.278840    0.738337   25.067135
Cu    1.278840    5.168366   25.067135
Cu    1.278840    9.598395   25.067135
Cu    3.836517    0.738337   25.067135
Cu    3.836517    5.168366   25.067135
Cu    3.836517    9.598395   25.067135
Cu    6.394194    0.738337   25.067135
Cu    6.394194    5.168366   25.067135
Cu    6.394194    9.598395   25.067135
Cu    0.000000    2.953352   25.067135
Cu    7.673031    2.953352   25.067135
Cu    0.000000    7.383380   25.067135
Cu    7.673031    7.383380   25.067135
Cu    0.000000   11.813409   25.067135
Cu    7.673031   11.813409   25.067135
Cu    2.557677    2.953352   25.067135
Cu    2.557677    7.383380   25.067135
Cu    2.557677   11.813409   25.067135
Cu    5.115355    2.953352   25.067135
Cu    5.115355    7.383380   25.067135
Cu    5.115355   11.813409   25.067135
Cu    5.115353    1.476677   22.978895
Cu    5.115353    5.906706   22.978895
Cu    5.115353   10.336735   22.978895
Cu    0.000000    1.476677   22.978895
Cu    7.673031    1.476677   22.978895
Cu    0.000000    5.906706   22.978895
Cu    7.673031    5.906706   22.978895
Cu    0.000000   10.336735   22.978895
Cu    7.673031   10.336735   22.978895
Cu    2.557676    1.476677   22.978895
Cu    2.557676    5.906706   22.978895
Cu    2.557676   10.336735   22.978895
Cu    3.836514    3.691691   22.978895
Cu    3.836514    8.121719   22.978895
Cu    3.836514   12.551749   22.978895
Cu    6.394191    3.691691   22.978895
Cu    6.394191    8.121719   22.978895
Cu    6.394191   12.551749   22.978895
Cu    1.278837    3.691691   22.978895
Cu    1.278837    8.121719   22.978895
Cu    1.278837   12.551749   22.978895
Cu    0.000000    0.000000   27.152218
Cu    0.000000   13.290086   27.152218
Cu    7.673031    0.000000   27.152218
Cu    7.673031   13.290086   27.152218
Cu    0.000000    4.430029   27.152218
Cu    7.673031    4.430029   27.152218
Cu    0.000000    8.860058   27.152218
Cu    7.673031    8.860058   27.152218
Cu    2.557677    0.000000   27.152218
Cu    2.557677   13.290086   27.152218
Cu    2.557677    4.430029   27.152218
Cu    2.557677    8.860058   27.152218
Cu    5.115355    0.000000   27.152218
Cu    5.115355   13.290086   27.152218
Cu    5.115355    4.430029   27.152218
Cu    5.115355    8.860058   27.152218
Cu    3.836515    2.215014   27.152218
Cu    3.836515    6.645043   27.152218
Cu    3.836515   11.075072   27.152218
Cu    6.394192    2.215014   27.152218
Cu    6.394192    6.645043   27.152218
Cu    6.394192   11.075072   27.152218
Cu    1.278838    2.215014   27.152218
Cu    1.278838    6.645043   27.152218
Cu    1.278838   11.075072   27.152218
Te    2.779355    1.527311   32.026985
Te    2.779355    7.691178   32.026985
Te    6.338066    1.527311   32.026985
Te    6.338066    7.691178   32.026985
Te    1.000000    4.609244   32.026985
Te    1.000000   10.773111   32.026985
Te    4.558710    4.609244   32.026985
Te    4.558710   10.773111   32.026985
Te    1.000000    2.554622   39.700306
Te    1.000000    8.718489   39.700306
Te    4.558710    2.554622   39.700306
Te    4.558710    8.718489   39.700306
Te    2.779355    5.636556   39.700306
Te    2.779355   11.800423   39.700306
Te    6.338065    5.636556   39.700306
Te    6.338065   11.800423   39.700306
Te    1.000000    2.554622   43.319660
Te    1.000000    8.718489   43.319660
Te    4.558710    2.554622   43.319660
Te    4.558710    8.718489   43.319660
Te    2.779355    5.636556   43.319660
Te    2.779355   11.800423   43.319660
Te    6.338065    5.636556   43.319660
Te    6.338065   11.800423   43.319660
Te    2.779355    1.527311   35.646339
Te    2.779355    7.691178   35.646339
Te    6.338066    1.527311   35.646339
Te    6.338066    7.691178   35.646339
Te    1.000000    4.609244   35.646339
Te    1.000000   10.773111   35.646339
Te    4.558710    4.609244   35.646339
Te    4.558710   10.773111   35.646339
Mo    2.779355    1.527311   41.509983
Mo    2.779355    7.691178   41.509983
Mo    6.338066    1.527311   41.509983
Mo    6.338066    7.691178   41.509983
Mo    1.000000    4.609244   41.509983
Mo    1.000000   10.773111   41.509983
Mo    4.558710    4.609244   41.509983
Mo    4.558710   10.773111   41.509983
Mo    1.000000    2.554622   33.836662
Mo    1.000000    8.718489   33.836662
Mo    4.558710    2.554622   33.836662
Mo    4.558710    8.718489   33.836662
Mo    2.779355    5.636556   33.836662
Mo    2.779355   11.800423   33.836662
Mo    6.338065    5.636556   33.836662
Mo    6.338065   11.800423   33.836662
