266
nanotube
 C   29.428980   20.551197    0.000000
 C   29.428980   20.551197   10.730300
 C   29.334017   21.851109    0.565487
 C   28.648191   24.191364    0.282207
 C   27.352501   26.257286    0.000000
 C   27.352501   26.257286   10.730300
 C   29.422649   20.878286    2.824215
 C   29.308695   22.013597    1.976521
 C   28.998489   23.279739    2.542008
 C   28.580662   24.339081    1.694314
 C   27.939148   25.474388    2.259801
 C   27.244879   26.381792    1.412108
 C   26.320597   27.299746    1.976521
 C   25.406862   27.983463    1.129901
 C   24.265221   28.614424    1.694314
 C   23.201660   29.023811    0.846621
 C   21.931295   29.321356    1.412108
 C   20.795988   29.424759    0.564414
 C   19.493971   29.365671    1.129901
 C   18.371321   29.156757    0.282207
 C   17.134722   28.745260    0.847694
 C   16.113365   28.238802    0.000000
 C   16.113365   28.238802   10.730300
 C   15.035032   27.506548    0.565487
 C   13.348949   25.742390    0.282207
 C   12.209421   23.587835    0.000000
 C   12.209421   23.587835   10.730300
 C   29.416317   21.040773    4.235250
 C   29.247499   22.334354    4.800736
 C   28.947842   23.433788    3.953043
 C   28.435055   24.632404    4.518529
 C   27.846300   25.609444    3.670835
 C   27.027525   26.624472    4.236322
 C   26.193983   27.405260    3.388629
 C   25.130421   28.156506    3.953043
 C   24.117504   28.681953    3.106422
 C   22.887234   29.116665    3.670835
 C   21.770918   29.344568    2.824215
 C   20.468899   29.428980    3.388629
 C   19.331482   29.344568    2.540935
 C   18.056896   29.070236    3.106422
 C   16.984894   28.681953    2.258728
 C   15.832703   28.072094    2.824215
 C   14.906308   27.403149    1.976521
 C   13.965140   26.504187    2.542008
 C   13.256100   25.609444    1.694314
 C   12.593485   24.486797    2.259801
 C   12.154555   23.433788    1.412108
 C   11.823246   22.171862    1.976521
 C   11.686082   21.040773    1.129901
 C   11.711404   19.736647    1.694314
 C   11.888664   18.609777    0.846621
 C   12.266397   17.362627    1.412108
 C   12.743311   16.326500    0.564414
 C   13.446022   15.227064    1.129901
 C   14.188826   14.359755    0.282207
 C   15.163756   13.494556    0.847694
 C   16.113365   12.863595    0.000000
 C   16.113365   12.863595   10.730300
 C   17.286657   12.295941    0.565487
 C   19.656458   11.717734    0.282207
 C   22.093784   11.808475    0.000000
 C   22.093784   11.808475   10.730300
 C   29.390993   21.365751    7.059464
 C   29.213734   22.492620    6.211771
 C   28.836000   23.741882    6.777258
 C   28.359087   24.778011    5.929564
 C   27.656376   25.875336    6.495050
 C   26.913572   26.742641    5.647357
 C   25.938641   27.607841    6.212843
 C   24.989035   28.238802    5.365150
 C   23.815739   28.806459    5.930636
 C   22.731075   29.156757    5.082943
 C   21.445942   29.384663    5.647357
 C   20.306414   29.424759    4.800736
 C   19.008612   29.293922    5.365150
 C   17.900738   29.023811    4.518529
 C   16.687349   28.544786    5.082943
 C   15.695537   27.983463    4.235250
 C   14.659410   27.192123    4.800736
 C   13.855408   26.381792    3.953043
 C   13.074619   25.337223    4.518529
 C   12.521735   24.339081    3.670835
 C   12.053264   23.123583    4.236322
 C   11.793703   22.011486    3.388629
 C   11.675530   20.713686    3.953043
 C   11.728286   19.574160    3.106422
 C   11.964632   18.293242    3.670835
 C   12.325483   17.210690    2.824215
 C   12.903690   16.041616    3.388629
 C   13.545202   15.098339    2.540935
 C   14.418841   14.131850    3.106422
 C   15.294592   13.397486    2.258728
 C   16.398249   12.705327    2.824215
 C   17.438595   12.236854    1.976521
 C   18.689966   11.871782    2.542008
 C   19.818947   11.702963    1.694314
 C   21.120964   11.692412    2.259801
 C   22.254162   11.838019    1.412108
 C   23.511866   12.181988    1.976521
 C   24.560654   12.629358    1.129901
 C   25.676971   13.302526    1.694314
 C   26.563272   14.020006    0.846621
 C   27.455904   14.971725    1.412108
 C   28.114298   15.902342    0.564414
 C   28.713606   17.060862    1.129901
 C   29.093449   18.134974    0.282207
 C   29.355120   19.413780    0.847694
 C   29.374111   21.528240    8.471572
 C   29.135654   22.811268    9.035986
 C   28.776917   23.891710    8.189364
 C   28.198709   25.060780    8.753778
 C   27.557198   26.004061    7.906085
 C   26.681446   26.972660    8.471572
 C   25.807806   27.704914    7.623878
 C   24.704151   28.397070    8.189364
 C   23.663801   28.865543    7.341671
 C   22.412430   29.232725    7.907158
 C   21.283453   29.399437    7.059464
 C   19.979324   29.409986    7.624951
 C   18.848234   29.264380    6.777258
 C   17.590532   28.920410    7.341671
 C   16.541742   28.473042    6.495050
 C   15.425426   27.799873    7.059464
 C   14.539125   27.082390    6.211771
 C   13.646494   26.130672    6.777258
 C   12.988100   25.200058    5.929564
 C   12.388791   24.041538    6.495050
 C   12.008948   22.967424    5.647357
 C   11.747277   21.688618    6.212843
 C   11.673420   20.551197    5.365150
 C   11.768381   19.251293    5.930636
 C   12.008948   18.134974    5.082943
 C   12.454209   16.908924    5.647357
 C   12.988100   15.902342    4.800736
 C   13.749897   14.845110    5.365150
 C   14.539125   14.020006    4.518529
 C   15.560481   13.209675    5.082943
 C   16.543852   12.629358    4.235250
 C   17.746691   12.129232    4.800736
 C   18.850348   11.838019    3.953043
 C   20.143923   11.681861    4.518529
 C   21.285564   11.702963    3.670835
 C   22.572807   11.907657    4.236322
 C   23.663801   12.236854    3.388629
 C   24.847647   12.783405    3.953043
 C   25.809916   13.397486    3.106422
 C   26.799622   14.245802    3.670835
 C   27.557198   15.098339    2.824215
 C   28.281006   16.183004    3.388629
 C   28.776917   17.210690    2.540935
 C   29.177858   18.451509    3.106422
 C   29.374111   19.574160    2.258728
 C   29.093449   22.967424   10.448092
 C   28.114298   25.200058   10.165886
 C   26.563272   27.082390    9.883679
 C   25.541918   27.892725   10.448092
 C   24.558544   28.473042    9.600399
 C   23.355707   28.975277   10.165886
 C   22.252052   29.264380    9.318192
 C   20.958477   29.420538    9.883679
 C   19.816835   29.399437    9.035986
 C   18.529589   29.194742    9.601473
 C   17.438595   28.865543    8.753778
 C   16.252638   28.318991    9.318192
 C   15.292482   27.704914    8.471572
 C   14.302779   26.856594    9.035986
 C   13.545202   26.004061    8.189364
 C   12.821391   24.919397    8.753778
 C   12.325483   23.891710    7.906085
 C   11.924539   22.650888    8.471572
 C   11.728286   21.526129    7.623878
 C   11.679751   20.224112    8.189364
 C   11.793703   19.088800    7.341671
 C   12.103909   17.822659    7.907158
 C   12.523847   16.761208    7.059464
 C   13.165359   15.625899    7.624951
 C   13.857517   14.720606    6.777258
 C   14.783914   13.802651    7.341671
 C   15.695537   13.118934    6.495050
 C   16.837177   12.487972    7.059464
 C   17.900738   12.078587    6.211771
 C   19.171101   11.781042    6.777258
 C   20.306414   11.677641    5.929564
 C   21.610540   11.736727    6.495050
 C   22.731075   11.945641    5.647357
 C   23.967676   12.357137    6.212843
 C   24.991144   12.863595    5.365150
 C   26.069477   13.595849    5.930636
 C   26.915682   14.361866    5.082943
 C   27.753448   15.360008    5.647357
 C   28.359087   16.326500    4.800736
 C   28.892977   17.514565    5.365150
 C   29.213734   18.609777    4.518529
 C   29.405767   19.899136    5.082943
 C   14.186715   26.740532   10.448092
 C   12.743311   24.775898   10.165886
 C   11.888664   22.492620    9.883679
 C   11.696632   21.201153   10.448092
 C   11.686082   20.061623    9.600399
 C   11.854900   18.768045   10.165886
 C   12.154555   17.668612    9.318192
 C   12.667342   16.469994    9.883679
 C   13.256100   15.492953    9.035986
 C   14.074873   14.477928    9.601473
 C   14.908419   13.697140    8.753778
 C   15.971979   12.945894    9.318192
 C   16.984894   12.420444    8.471572
 C   18.215164   11.985736    9.035986
 C   19.331482   11.757830    8.189364
 C   20.633499   11.673420    8.753778
 C   21.770918   11.757830    7.906085
 C   23.045502   12.032160    8.471572
 C   24.117504   12.420444    7.623878
 C   25.269697   13.032413    8.189364
 C   26.196091   13.699250    7.341671
 C   27.137259   14.600323    7.907158
 C   27.846300   15.492953    7.059464
 C   28.508915   16.615601    7.624951
 C   28.947842   17.668612    6.777258
 C   29.279152   18.930536    7.341671
 C   29.416317   20.063736    6.495050
 C   18.373430   11.945641   10.448092
 C   20.795988   11.677641   10.165886
 C   23.201660   12.078587    9.883679
 C   24.415047   12.557611   10.448092
 C   25.406862   13.118934    9.600399
 C   26.442989   13.910275   10.165886
 C   27.246992   14.720606    9.318192
 C   28.027781   15.765175    9.883679
 C   28.580662   16.763317    9.035986
 C   29.049135   17.980927    9.601473
 C   29.308695   19.090912    8.753778
 C   29.426868   20.388712    9.318192
 C   29.426868   20.388712   -1.412107
 C   29.334017   21.851109   11.295787
 C   29.355120   19.413780   11.577993
 C   29.093449   22.967424   -0.282207
 C   28.114298   25.200058   -0.564414
 C   26.563272   27.082390   -0.846621
 C   27.244879   26.381792   12.142407
 C   17.134722   28.745260   11.577993
 C   15.035032   27.506548   11.295787
 C   14.186715   26.740532   -0.282207
 C   12.743311   24.775898   -0.564414
 C   11.888664   22.492620   -0.846621
 C   12.154555   23.433788   12.142407
 C   15.163756   13.494556   11.577993
 C   17.286657   12.295941   11.295787
 C   18.373430   11.945641   -0.282207
 C   20.795988   11.677641   -0.564414
 C   23.201660   12.078587   -0.846621
 C   22.254162   11.838019   12.142407
 C   28.648191   24.191364   11.012506
 C   25.406862   27.983463   11.860201
 C   23.201660   29.023811   11.576921
 C   20.795988   29.424759   11.294714
 C   18.371321   29.156757   11.012506
 C   11.686082   21.040773   11.860201
 C   11.888664   18.609777   11.576921
 C   12.743311   16.326500   11.294714
 C   14.188826   14.359755   11.012506
 C   24.560654   12.629358   11.860201
 C   26.563272   14.020006   11.576921
 C   28.114298   15.902342   11.294714
 C   29.093449   18.134974   11.012506
