316
C240
 C   12.860833    3.216431    6.683725
 C    1.434867   10.364281    0.464125
 C    8.582717   11.079269   13.831575
 C    5.712981    3.931419    7.611974
 C    6.683725   12.860833    3.216431
 C    0.464125    1.434867   10.364281
 C   13.831575    8.582717   11.079269
 C    7.611974    5.712981    3.931419
 C    3.216431    6.683725   12.860833
 C   10.364281    0.464125    1.434867
 C   11.079269   13.831575    8.582717
 C    3.931419    7.611974    5.712981
 C    1.434867   11.079269    7.611974
 C   12.860833    3.931419   13.831575
 C    5.712981    3.216431    0.464125
 C    8.582717   10.364281    6.683725
 C    7.611974    1.434867   11.079269
 C   13.831575   12.860833    3.931419
 C    0.464125    5.712981    3.216431
 C    6.683725    8.582717   10.364281
 C   11.079269    7.611974    1.434867
 C    3.931419   13.831575   12.860833
 C    3.216431    0.464125    5.712981
 C   10.364281    6.683725    8.582717
 C   14.204347    3.462891    6.376622
 C    0.091354   10.610741    0.771228
 C    7.239204   10.832809   13.524472
 C    7.056496    3.684959    7.919078
 C    6.376622   14.204347    3.462891
 C    0.771228    0.091354   10.610741
 C   13.524472    7.239204   10.832809
 C    7.919078    7.056496    3.684959
 C    3.462891    6.376622   14.204347
 C   10.610741    0.771228    0.091354
 C   10.832809   13.524472    7.239204
 C    3.684959    7.919078    7.056496
 C    0.091354   10.832809    7.919078
 C   14.204347    3.684959   13.524472
 C    7.056496    3.462891    0.771228
 C    7.239204   10.610741    6.376622
 C    7.919078    0.091354   10.832809
 C   13.524472   14.204347    3.684959
 C    0.771228    7.056496    3.462891
 C    6.376622    7.239204   10.610741
 C   10.832809    7.919078    0.091354
 C    3.684959   13.524472   14.204347
 C    3.462891    0.771228    7.056496
 C   10.610741    6.376622    7.239204
 C   12.468198    2.917204    8.050444
 C    1.827502   10.065054   13.393106
 C    8.975352   11.378495    0.902593
 C    5.320348    4.230646    6.245256
 C    8.050444   12.468198    2.917204
 C   13.393106    1.827502   10.065054
 C    0.902593    8.975352   11.378495
 C    6.245256    5.320348    4.230646
 C    2.917204    8.050444   12.468198
 C   10.065054   13.393106    1.827502
 C   11.378495    0.902593    8.975352
 C    4.230646    6.245256    5.320348
 C    1.827502   11.378495    6.245256
 C   12.468198    4.230646    0.902593
 C    5.320348    2.917204   13.393106
 C    8.975352   10.065054    8.050444
 C    6.245256    1.827502   11.378495
 C    0.902593   12.468198    4.230646
 C   13.393106    5.320348    2.917204
 C    8.050444    8.975352   10.065054
 C   11.378495    6.245256    1.827502
 C    4.230646    0.902593   12.468198
 C    2.917204   13.393106    5.320348
 C   10.065054    8.050444    8.975352
 C    0.497668    2.903705    5.169455
 C   13.798031   10.051556    1.978393
 C    6.650180   11.391994   12.317306
 C    7.645518    4.244147    9.126245
 C    5.169455    0.497668    2.903705
 C    1.978393   13.798031   10.051556
 C   12.317306    6.650180   11.391994
 C    9.126245    7.645518    4.244147
 C    2.903705    5.169455    0.497668
 C   10.051556    1.978393   13.798031
 C   11.391994   12.317306    6.650180
 C    4.244147    9.126245    7.645518
 C   13.798031   11.391994    9.126245
 C    0.497668    4.244147   12.317306
 C    7.645518    2.903705    1.978393
 C    6.650180   10.051556    5.169455
 C    9.126245   13.798031   11.391994
 C   12.317306    0.497668    4.244147
 C    1.978393    7.645518    2.903705
 C    5.169455    6.650180   10.051556
 C   11.391994    9.126245   13.798031
 C    4.244147   12.317306    0.497668
 C    2.903705    1.978393    7.645518
 C   10.051556    5.169455    6.650180
 C   12.050904    2.400658    5.794382
 C    2.244796    9.548508    1.353467
 C    9.392645   11.895043   12.942233
 C    4.903053    4.747192    8.501317
 C    5.794382   12.050904    2.400658
 C    1.353467    2.244796    9.548508
 C   12.942233    9.392645   11.895043
 C    8.501317    4.903053    4.747192
 C    2.400658    5.794382   12.050904
 C    9.548508    1.353467    2.244796
 C   11.895043   12.942233    9.392645
 C    4.747192    8.501317    4.903053
 C    2.244796   11.895043    8.501317
 C   12.050904    4.747192   12.942233
 C    4.903053    2.400658    1.353467
 C    9.392645    9.548508    5.794382
 C    8.501317    2.244796   11.895043
 C   12.942233   12.050904    4.747192
 C    1.353467    4.903053    2.400658
 C    5.794382    9.392645    9.548508
 C   11.895043    8.501317    2.244796
 C    4.747192   12.942233   12.050904
 C    2.400658    1.353467    4.903053
 C    9.548508    5.794382    9.392645
 C    0.535283    3.138211    8.741264
 C   13.760417   10.286061   12.702286
 C    6.612566   11.157489    1.593414
 C    7.683133    4.009640    5.554436
 C    8.741264    0.535283    3.138211
 C   12.702286   13.760417   10.286061
 C    1.593414    6.612566   11.157489
 C    5.554436    7.683133    4.009640
 C    3.138211    8.741264    0.535283
 C   10.286061   12.702286   13.760417
 C   11.157489    1.593414    6.612566
 C    4.009640    5.554436    7.683133
 C   13.760417   11.157489    5.554436
 C    0.535283    4.009640    1.593414
 C    7.683133    3.138211   12.702286
 C    6.612566   10.286061    8.741264
 C    5.554436   13.760417   11.157489
 C    1.593414    0.535283    4.009640
 C   12.702286    7.683133    3.138211
 C    8.741264    6.612566   10.286061
 C   11.157489    5.554436   13.760417
 C    4.009640    1.593414    0.535283
 C    3.138211   12.702286    7.683133
 C   10.286061    8.741264    6.612566
 C    0.912473    3.426610    7.423105
 C   13.383226   10.574461   14.020446
 C    6.235376   10.869089    0.275256
 C    8.060323    3.721240    6.872594
 C    7.423105    0.912473    3.426610
 C   14.020446   13.383226   10.574461
 C    0.275256    6.235376   10.869089
 C    6.872594    8.060323    3.721240
 C    3.426610    7.423105    0.912473
 C   10.574461   14.020446   13.383226
 C   10.869089    0.275256    6.235376
 C    3.721240    6.872594    8.060323
 C   13.383226   10.869089    6.872594
 C    0.912473    3.721240    0.275256
 C    8.060323    3.426610   14.020446
 C    6.235376   10.574461    7.423105
 C    6.872594   13.383226   10.869089
 C    0.275256    0.912473    3.721240
 C   14.020446    8.060323    3.426610
 C    7.423105    6.235376   10.574461
 C   10.869089    6.872594   13.383226
 C    3.721240    0.275256    0.912473
 C    3.426610   14.020446    8.060323
 C   10.574461    7.423105    6.235376
 C   13.436712    2.877878    9.060971
 C    0.858989   10.025727   12.382579
 C    8.006838   11.417823    1.913123
 C    6.288861    4.269972    5.234730
 C    9.060971   13.436712    2.877878
 C   12.382579    0.858989   10.025727
 C    1.913123    8.006838   11.417823
 C    5.234730    6.288861    4.269972
 C    2.877878    9.060971   13.436712
 C   10.025727   12.382579    0.858989
 C   11.417823    1.913123    8.006838
 C    4.269972    5.234730    6.288861
 C    0.858989   11.417823    5.234730
 C   13.436712    4.269972    1.913123
 C    6.288861    2.877878   12.382579
 C    8.006838   10.025727    9.060971
 C    5.234730    0.858989   11.417823
 C    1.913123   13.436712    4.269972
 C   12.382579    6.288861    2.877878
 C    9.060971    8.006838   10.025727
 C   11.417823    5.234730    0.858989
 C    4.269972    1.913123   13.436712
 C    2.877878   12.382579    6.288861
 C   10.025727    9.060971    8.006838
 C   14.013023    2.118398    4.311915
 C    0.282678    9.266248    2.835933
 C    7.430527   12.177302   11.459765
 C    6.865172    5.029452    9.983786
 C    4.311915   14.013023    2.118398
 C    2.835933    0.282678    9.266248
 C   11.459765    7.430527   12.177302
 C    9.983786    6.865172    5.029452
 C    2.118398    4.311915   14.013023
 C    9.266248    2.835933    0.282678
 C   12.177302   11.459765    7.430527
 C    5.029452    9.983786    6.865172
 C    0.282678   12.177302    9.983786
 C   14.013023    5.029452   11.459765
 C    6.865172    2.118398    2.835933
 C    7.430527    9.266248    4.311915
 C    9.983786    0.282678   12.177302
 C   11.459765   14.013023    5.029452
 C    2.835933    6.865172    2.118398
 C    4.311915    7.430527    9.266248
 C   12.177302    9.983786    0.282678
 C    5.029452   11.459765   14.013023
 C    2.118398    2.835933    6.865172
 C    9.266248    4.311915    7.430527
 C   12.618764    1.861858    4.631325
 C    1.676936    9.009709    2.516526
 C    8.824787   12.433841   11.779175
 C    5.470913    5.285992    9.664375
 C    4.631325   12.618764    1.861858
 C    2.516526    1.676936    9.009709
 C   11.779175    8.824787   12.433841
 C    9.664375    5.470913    5.285992
 C    1.861858    4.631325   12.618764
 C    9.009709    2.516526    1.676936
 C   12.433841   11.779175    8.824787
 C    5.285992    9.664375    5.470913
 C    1.676936   12.433841    9.664375
 C   12.618764    5.285992   11.779175
 C    5.470913    1.861858    2.516526
 C    8.824787    9.009709    4.631325
 C    9.664375    1.676936   12.433841
 C   11.779175   12.618764    5.285992
 C    2.516526    5.470913    1.861858
 C    4.631325    8.824787    9.009709
 C   12.433841    9.664375    1.676936
 C    5.285992   11.779175   12.618764
 C    1.861858    2.516526    5.470913
 C    9.009709    4.631325    8.824787
 C    1.827502   10.065054   -0.902594
 C    8.975352   11.378495   15.198294
 C   -0.902594    1.827502   10.065054
 C   15.198294    8.975352   11.378495
 C   10.065054   -0.902594    1.827502
 C   11.378495   15.198294    8.975352
 C   12.468198    4.230646   15.198294
 C    5.320348    2.917204   -0.902594
 C   15.198294   12.468198    4.230646
 C   -0.902594    5.320348    2.917204
 C    4.230646   15.198294   12.468198
 C    2.917204   -0.902594    5.320348
 C    1.434867   10.364281   14.759825
 C    8.582717   11.079269   -0.464125
 C   -0.464125    8.582717   11.079269
 C   11.079269   -0.464125    8.582717
 C   12.860833    3.931419   -0.464125
 C    5.712981    3.216431   14.759825
 C   -0.464125   12.860833    3.931419
 C   14.759825    5.712981    3.216431
 C    3.931419   -0.464125   12.860833
 C   -0.282677    2.118398    4.311915
 C   -0.091353    3.462891    6.376622
 C   14.578378    9.266248    2.835933
 C   14.387054   10.610741    0.771228
 C    4.311915   -0.282677    2.118398
 C    6.376622   -0.091353    3.462891
 C    0.771228   14.387054   10.610741
 C    2.835933   14.578378    9.266248
 C    2.118398    4.311915   -0.282677
 C    3.462891    6.376622   -0.091353
 C    9.266248    2.835933   14.578378
 C   10.610741    0.771228   14.387054
 C   14.387054   10.832809    7.919078
 C   14.578378   12.177302    9.983786
 C   -0.091353    3.684959   13.524472
 C   -0.282677    5.029452   11.459765
 C    7.919078   14.387054   10.832809
 C    9.983786   14.578378   12.177302
 C   11.459765   -0.282677    5.029452
 C   13.524472   -0.091353    3.684959
 C   10.832809    7.919078   14.387054
 C   12.177302    9.983786   14.578378
 C    3.684959   13.524472   -0.091353
 C    5.029452   11.459765   -0.282677
 C   -0.858988    2.877878    9.060971
 C   15.154689   10.025727   12.382579
 C    9.060971   -0.858988    2.877878
 C   12.382579   15.154689   10.025727
 C    2.877878    9.060971   -0.858988
 C   10.025727   12.382579   15.154689
 C   15.154689   11.417823    5.234730
 C   -0.858988    4.269972    1.913123
 C    5.234730   15.154689   11.417823
 C    1.913123   -0.858988    4.269972
 C   11.417823    5.234730   15.154689
 C    4.269972    1.913123   -0.858988
 C    7.056496    3.462891   15.066929
 C   15.066929    7.056496    3.462891
 C   14.830983    3.138211    8.741264
 C    8.741264   14.830983    3.138211
 C   -0.535283   11.157489    5.554436
 C    5.554436   -0.535283   11.157489
 C    1.593414   14.830983    4.009640
 C   -0.275254    8.060323    3.426610
 C   -0.497669   10.051556    1.978393
 C    1.978393   -0.497669   10.051556
 C    3.426610   -0.275254    8.060323
 C    8.060323    3.426610   -0.275254
 C   -0.497669   11.391994    9.126245
 C   -0.275254   13.383226   10.574461
 C    9.126245   -0.497669   11.391994
 C   10.574461   -0.275254   13.383226
 C   11.391994    9.126245   -0.497669
 C   13.383226   10.574461   -0.275254
 C    4.244147   12.317306   14.793368
