288
ZIF-8
 C    6.406456    0.134229   10.584543
 C    6.261353   15.277287   11.681312
 H    6.417500   14.593570   12.291288
 C    6.900045    1.452730   10.090955
 N    6.961722   16.452724   11.601115
Zn    8.495500    0.000000   12.743250
Zn    8.495500   16.990999   12.743250
 C    0.134229   10.584543    6.406456
 C   15.277287   10.729646    5.309687
 H   14.593570   10.573500    4.699710
 C    1.452730   10.090955    6.900045
 N   16.452724   10.029277    5.389885
Zn    0.000000    8.495500    4.247750
Zn   16.990999    8.495500    4.247750
 C   10.584543   16.856770   10.584543
 C   10.729646    1.713712   11.681312
 H   10.573500    2.397430   12.291288
 C   10.090955   15.538269   10.090955
 H    9.197227   15.635118    9.757931
 H   10.096052   14.904505   10.813071
 H   10.663551   15.225635    9.387527
 N   10.029277    0.538275   11.601115
 C   16.856770    6.406456    6.406456
 C    1.713712    6.261353    5.309687
 H    2.397430    6.417500    4.699710
 C   15.538269    6.900045    6.900045
 H   15.635118    7.793771    7.233068
 H   14.904505    6.894948    6.177927
 H   15.225635    6.327448    7.603472
 N    0.538275    6.961722    5.389885
 C    6.406456   16.856770    6.406456
 C    6.261353    1.713712    5.309687
 H    6.417500    2.397430    4.699710
 C    6.900045   15.538269    6.900045
 N    6.961722    0.538275    5.389885
Zn    8.495500    0.000000    4.247750
Zn    8.495500   16.990999    4.247750
 C   16.856770   10.584543   10.584543
 C    1.713712   10.729646   11.681312
 H    2.397430   10.573500   12.291288
 C   15.538269   10.090955   10.090955
 N    0.538275   10.029277   11.601115
Zn    0.000000    8.495500   12.743250
Zn   16.990999    8.495500   12.743250
 C   10.584543    0.134229    6.406456
 C   10.729646   15.277287    5.309687
 H   10.573500   14.593570    4.699710
 C   10.090955    1.452730    6.900045
 H    9.197227    1.355882    7.233068
 H   10.096052    2.086495    6.177927
 H   10.663551    1.765365    7.603472
 N   10.029277   16.452724    5.389885
 C    0.134229    6.406456   10.584543
 C   15.277287    6.261353   11.681312
 H   14.593570    6.417500   12.291288
 C    1.452730    6.900045   10.090955
 H    1.355882    7.793771    9.757931
 H    2.086495    6.894948   10.813071
 H    1.765365    6.327448    9.387527
 N   16.452724    6.961722   11.601115
 C   10.584543    6.406456    0.134229
 C   11.681312    6.261353   15.277287
 H   12.291288    6.417500   14.593570
 C   10.090955    6.900045    1.452730
 N   11.601115    6.961722   16.452724
Zn   12.743250    8.495500    0.000000
Zn   12.743250    8.495500   16.990999
 C    6.406456    6.406456   16.856770
 C    6.261353    5.309687    1.713712
 H    6.417500    4.699710    2.397430
 C    6.900045    6.900045   15.538269
 H    7.793771    7.233068   15.635118
 H    6.894948    6.177927   14.904505
 H    6.327448    7.603472   15.225635
 N    6.961722    5.389885    0.538275
Zn    8.495500    4.247750    0.000000
Zn    8.495500    4.247750   16.990999
 C    6.406456   10.584543    0.134229
 C    5.309687   10.729646   15.277287
 H    4.699710   10.573500   14.593570
 C    6.900045   10.090955    1.452730
 N    5.389885   10.029277   16.452724
Zn    4.247750    8.495500    0.000000
Zn    4.247750    8.495500   16.990999
 C   10.584543   10.584543   16.856770
 C   10.729646   11.681312    1.713712
 H   10.573500   12.291288    2.397430
 C   10.090955   10.090955   15.538269
 H    9.197227    9.757931   15.635118
 H   10.096052   10.813071   14.904505
 H   10.663551    9.387527   15.225635
 N   10.029277   11.601115    0.538275
Zn    8.495500   12.743250    0.000000
Zn    8.495500   12.743250   16.990999
 C   11.681312   10.729646    1.713712
 H   12.291288   10.573500    2.397430
 N   11.601115   10.029277    0.538275
 C   10.729646    5.309687   15.277287
 H   10.573500    4.699710   14.593570
 H    9.197227    7.233068    1.355882
 H   10.096052    6.177927    2.086495
 H   10.663551    7.603472    1.765365
 N   10.029277    5.389885   16.452724
 C    5.309687    6.261353    1.713712
 H    4.699710    6.417500    2.397430
 N    5.389885    6.961722    0.538275
 C    6.261353   11.681312   15.277287
 H    6.417500   12.291288   14.593570
 H    7.793771    9.757931    1.355882
 H    6.894948   10.813071    2.086495
 H    6.327448    9.387527    1.765365
 N    6.961722   11.601115   16.452724
 C   15.277287   11.681312    6.261353
 H   14.593570   12.291288    6.417500
 H    1.355882    9.757931    7.793771
 H    2.086495   10.813071    6.894948
 H    1.765365    9.387527    6.327448
 N   16.452724   11.601115    6.961722
Zn    0.000000   12.743250    8.495500
Zn   16.990999   12.743250    8.495500
 C   15.277287    5.309687   10.729646
 H   14.593570    4.699710   10.573500
 N   16.452724    5.389885   10.029277
Zn    0.000000    4.247750    8.495500
Zn   16.990999    4.247750    8.495500
 C    5.309687    1.713712    6.261353
 H    4.699710    2.397430    6.417500
 H    7.233068   15.635118    7.793771
 H    6.177927   14.904505    6.894948
 H    7.603472   15.225635    6.327448
 N    5.389885    0.538275    6.961722
Zn    4.247750    0.000000    8.495500
Zn    4.247750   16.990999    8.495500
 C    1.713712   11.681312   10.729646
 H    2.397430   12.291288   10.573500
 H   15.635118    9.757931    9.197227
 H   14.904505   10.813071   10.096052
 H   15.225635    9.387527   10.663551
 N    0.538275   11.601115   10.029277
 C   11.681312   15.277287    6.261353
 H   12.291288   14.593570    6.417500
 N   11.601115   16.452724    6.961722
Zn   12.743250    0.000000    8.495500
Zn   12.743250   16.990999    8.495500
 C    1.713712    5.309687    6.261353
 H    2.397430    4.699710    6.417500
 N    0.538275    5.389885    6.961722
 C    5.309687   15.277287   10.729646
 H    4.699710   14.593570   10.573500
 H    7.233068    1.355882    9.197227
 H    6.177927    2.086495   10.096052
 H    7.603472    1.765365   10.663551
 N    5.389885   16.452724   10.029277
 C   11.681312    1.713712   10.729646
 H   12.291288    2.397430   10.573500
 N   11.601115    0.538275   10.029277
 C   14.901956    8.629728    2.089043
 C   14.756853    6.781787    3.185812
 H   14.912999    6.098070    3.795789
 C   15.395544    9.948230    1.595455
 H   16.289270    9.851381    1.262431
 H   15.390447   10.581994    2.317572
 H   14.822948   10.260864    0.892027
 N   15.457222    7.957225    3.105615
 C    8.629728    2.089043   14.901956
 C    6.781787    2.234147   13.805187
 H    6.098070    2.077999   13.195210
 C    9.948230    1.595455   15.395544
 N    7.957225    1.533777   13.885384
 C    2.089043    8.361271    2.089043
 C    2.234147   10.209211    3.185812
 H    2.077999   10.892929    3.795789
 C    1.595455    7.042769    1.595455
 H    0.701728    7.139618    1.262431
 H    1.600552    6.409005    2.317572
 H    2.168051    6.730135    0.892027
 N    1.533777    9.033774    3.105615
 C    8.361271   14.901956   14.901956
 C   10.209211   14.756853   13.805187
 H   10.892929   14.912999   13.195210
 C    7.042769   15.395544   15.395544
 H    7.139618   16.289270   15.728568
 H    6.409005   15.390447   14.673428
 H    6.730135   14.822948   16.098972
 N    9.033774   15.457222   13.885384
 C   14.901956    8.361271   14.901956
 C   14.756853   10.209211   13.805187
 H   14.912999   10.892929   13.195210
 C   15.395544    7.042769   15.395544
 H   16.289270    7.139618   15.728568
 H   15.390447    6.409005   14.673428
 H   14.822948    6.730135   16.098972
 N   15.457222    9.033774   13.885384
 C    8.361271    2.089043    2.089043
 C   10.209211    2.234147    3.185812
 H   10.892929    2.077999    3.795789
 C    7.042769    1.595455    1.595455
 N    9.033774    1.533777    3.105615
 C    2.089043    8.629728   14.901956
 C    2.234147    6.781787   13.805187
 H    2.077999    6.098070   13.195210
 C    1.595455    9.948230   15.395544
 N    1.533777    7.957225   13.885384
 C    8.629728   14.901956    2.089043
 C    6.781787   14.756853    3.185812
 H    6.098070   14.912999    3.795789
 C    9.948230   15.395544    1.595455
 N    7.957225   15.457222    3.105615
 C    2.089043   14.901956    8.629728
 C    3.185812   14.756853    6.781787
 H    3.795789   14.912999    6.098070
 C    1.595455   15.395544    9.948230
 N    3.105615   15.457222    7.957225
 C   14.901956   14.901956    8.361271
 C   14.756853   13.805187   10.209211
 H   14.912999   13.195210   10.892929
 C   15.395544   15.395544    7.042769
 H   16.289270   15.728568    7.139618
 H   15.390447   14.673428    6.409005
 H   14.822948   16.098972    6.730135
 N   15.457222   13.885384    9.033774
 C   14.901956    2.089043    8.629728
 C   13.805187    2.234147    6.781787
 H   13.195210    2.077999    6.098070
 C   15.395544    1.595455    9.948230
 N   13.885384    1.533777    7.957225
 C    2.089043    2.089043    8.361271
 C    2.234147    3.185812   10.209211
 H    2.077999    3.795789   10.892929
 C    1.595455    1.595455    7.042769
 H    0.701728    1.262431    7.139618
 H    1.600552    2.317572    6.409005
 H    2.168051    0.892027    6.730135
 N    1.533777    3.105615    9.033774
 C    3.185812    2.234147   10.209211
 H    3.795789    2.077999   10.892929
 N    3.105615    1.533777    9.033774
 C    2.234147   13.805187    6.781787
 H    2.077999   13.195210    6.098070
 H    0.701728   15.728568    9.851381
 H    1.600552   14.673428   10.581994
 H    2.168051   16.098972   10.260864
 N    1.533777   13.885384    7.957225
 C   13.805187   14.756853   10.209211
 H   13.195210   14.912999   10.892929
 N   13.885384   15.457222    9.033774
 C   14.756853    3.185812    6.781787
 H   14.912999    3.795789    6.098070
 H   16.289270    1.262431    9.851381
 H   15.390447    2.317572   10.581994
 H   14.822948    0.892027   10.260864
 N   15.457222    3.105615    7.957225
 C    6.781787    3.185812   14.756853
 H    6.098070    3.795789   14.912999
 H    9.851381    1.262431   16.289270
 H   10.581994    2.317572   15.390447
 H   10.260864    0.892027   14.822948
 N    7.957225    3.105615   15.457222
 C    6.781787   13.805187    2.234147
 H    6.098070   13.195210    2.077999
 H    9.851381   15.728568    0.701728
 H   10.581994   14.673428    1.600552
 H   10.260864   16.098972    2.168051
 N    7.957225   13.885384    1.533777
 C   13.805187   10.209211   14.756853
 H   13.195210   10.892929   14.912999
 N   13.885384    9.033774   15.457222
 C   10.209211    3.185812    2.234147
 H   10.892929    3.795789    2.077999
 H    7.139618    1.262431    0.701728
 H    6.409005    2.317572    1.600552
 H    6.730135    0.892027    2.168051
 N    9.033774    3.105615    1.533777
 C    3.185812    6.781787   14.756853
 H    3.795789    6.098070   14.912999
 H    1.262431    9.851381   16.289270
 H    2.317572   10.581994   15.390447
 H    0.892027   10.260864   14.822948
 N    3.105615    7.957225   15.457222
 C   10.209211   13.805187   14.756853
 H   10.892929   13.195210   14.912999
 N    9.033774   13.885384   15.457222
 C   13.805187    6.781787    2.234147
 H   13.195210    6.098070    2.077999
 N   13.885384    7.957225    1.533777
 C    3.185812   10.209211    2.234147
 H    3.795789   10.892929    2.077999
 N    3.105615    9.033774    1.533777
