504 
Al slab 14.028 12.806 79.636 90.00 90.00 68.58 
Al 4.676000 5.044000 0.397000 
Al 2.338000 1.834000 1.191000 
Al 7.014000 4.127000 3.574000 
Al 4.676000 0.917000 4.368000 
Al 2.338000 3.210000 6.750000 
Al 0.000000 0.000000 7.545000 
Al 7.014000 5.502000 9.133000 
Al 4.676000 2.293000 9.927000 
Al 2.338000 4.585000 12.310000 
Al 7.014000 1.376000 13.104000 
Al 4.676000 3.668000 15.486000 
Al 2.338000 0.459000 16.281000 
Al 7.014000 2.751000 18.663000 
Al 4.676000 5.044000 21.046000 
Al 2.338000 1.834000 21.840000 
Al 7.014000 4.127000 24.222000 
Al 4.676000 0.917000 25.016001 
Al 2.338000 3.210000 27.399000 
Al 0.000000 0.000000 28.193001 
Al 7.014000 5.502000 29.781000 
Al 4.676000 2.293000 30.576000 
Al 2.338000 4.585000 32.958000 
Al 7.014000 1.376000 33.751999 
Al 4.676000 3.668000 36.134998 
Al 2.338000 0.459000 36.929001 
Al 7.014000 2.751000 39.312000 
Al 4.676000 5.044000 41.694000 
Al 2.338000 1.834000 42.487999 
Al 7.014000 4.127000 44.870998 
Al 4.676000 0.917000 45.665001 
Al 2.338000 3.210000 48.047001 
Al 0.000000 0.000000 48.841999 
Al 2.338000 4.585000 1.985000 
Al 7.014000 1.376000 2.780000 
Al 4.676000 3.668000 5.162000 
Al 2.338000 0.459000 5.956000 
Al 7.014000 2.751000 8.339000 
Al 4.676000 5.044000 10.721000 
Al 2.338000 1.834000 11.515000 
Al 7.014000 4.127000 13.898000 
Al 4.676000 0.917000 14.692000 
Al 2.338000 3.210000 17.075001 
Al 0.000000 0.000000 17.868999 
Al 7.014000 5.502000 19.457001 
Al 4.676000 2.293000 20.250999 
Al 2.338000 4.585000 22.634001 
Al 7.014000 1.376000 23.427999 
Al 4.676000 3.668000 25.811001 
Al 2.338000 0.459000 26.605000 
Al 7.014000 2.751000 28.987000 
Al 4.676000 5.044000 31.370001 
Al 2.338000 1.834000 32.164001 
Al 7.014000 4.127000 34.546001 
Al 4.676000 0.917000 35.341000 
Al 2.338000 3.210000 37.723000 
Al 0.000000 0.000000 38.516998 
Al 7.014000 5.502000 40.105999 
Al 4.676000 2.293000 40.900002 
Al 2.338000 4.585000 43.282001 
Al 7.014000 1.376000 44.077000 
Al 4.676000 3.668000 46.459000 
Al 2.338000 0.459000 47.252998 
Al 7.014000 2.751000 49.636002 
Al 7.014000 0.688000 0.000000 
Al 4.676000 2.980000 2.383000 
Al 2.338000 5.273000 4.765000 
Al 7.014000 2.063000 5.559000 
Al 4.676000 4.356000 7.942000 
Al 2.338000 1.146000 8.736000 
Al 7.014000 3.439000 11.118000 
Al 4.676000 0.229000 11.913000 
Al 4.676000 5.731000 13.501000 
Al 2.338000 2.522000 14.295000 
Al 7.014000 4.814000 16.677999 
Al 4.676000 1.605000 17.472000 
Al 2.338000 3.897000 19.854000 
Al 7.014000 0.688000 20.648001 
Al 4.676000 2.980000 23.031000 
Al 2.338000 5.273000 25.414000 
Al 7.014000 2.063000 26.208000 
Al 4.676000 4.356000 28.590000 
Al 2.338000 1.146000 29.384001 
Al 7.014000 3.439000 31.767000 
Al 4.676000 0.229000 32.561001 
Al 4.676000 5.731000 34.148998 
Al 2.338000 2.522000 34.944000 
Al 7.014000 4.814000 37.326000 
Al 4.676000 1.605000 38.119999 
Al 2.338000 3.897000 40.502998 
Al 7.014000 0.688000 41.297001 
Al 4.676000 2.980000 43.679001 
Al 2.338000 5.273000 46.062000 
Al 7.014000 2.063000 46.855999 
Al 4.676000 4.356000 49.238998 
Al 7.014000 3.439000 0.794000 
Al 4.676000 0.229000 1.588000 
Al 4.676000 5.731000 3.177000 
Al 2.338000 2.522000 3.971000 
Al 7.014000 4.814000 6.353000 
Al 4.676000 1.605000 7.148000 
Al 2.338000 3.897000 9.530000 
Al 7.014000 0.688000 10.324000 
Al 4.676000 2.980000 12.707000 
Al 2.338000 5.273000 15.089000 
Al 7.014000 2.063000 15.883000 
Al 4.676000 4.356000 18.266001 
Al 2.338000 1.146000 19.059999 
Al 7.014000 3.439000 21.443001 
Al 4.676000 0.229000 22.237000 
Al 4.676000 5.731000 23.825001 
Al 2.338000 2.522000 24.618999 
Al 7.014000 4.814000 27.002001 
Al 4.676000 1.605000 27.796000 
Al 2.338000 3.897000 30.179001 
Al 7.014000 0.688000 30.973000 
Al 4.676000 2.980000 33.355000 
Al 2.338000 5.273000 35.737999 
Al 7.014000 2.063000 36.532001 
Al 4.676000 4.356000 38.914001 
Al 2.338000 1.146000 39.709000 
Al 7.014000 3.439000 42.091000 
Al 4.676000 0.229000 42.884998 
Al 4.676000 5.731000 44.473999 
Al 2.338000 2.522000 45.268002 
Al 7.014000 4.814000 47.650002 
Al 4.676000 1.605000 48.445000 
Al 11.690000 5.044000 0.397000 
Al 9.352000 1.834000 1.191000 
Al 14.028000 4.127000 3.574000 
Al 11.690000 0.917000 4.368000 
Al 9.352000 3.210000 6.750000 
Al 7.014000 0.000000 7.545000 
Al 14.028000 5.502000 9.133000 
Al 11.690000 2.293000 9.927000 
Al 9.352000 4.585000 12.310000 
Al 14.028000 1.376000 13.104000 
Al 11.690000 3.668000 15.486000 
Al 9.352000 0.459000 16.281000 
Al 14.028000 2.751000 18.663000 
Al 11.690000 5.044000 21.046000 
Al 9.352000 1.834000 21.840000 
Al 14.028000 4.127000 24.222000 
Al 11.690000 0.917000 25.016001 
Al 9.352000 3.210000 27.399000 
Al 7.014000 0.000000 28.193001 
Al 14.028000 5.502000 29.781000 
Al 11.690000 2.293000 30.576000 
Al 9.352000 4.585000 32.958000 
Al 14.028000 1.376000 33.751999 
Al 11.690000 3.668000 36.134998 
Al 9.352000 0.459000 36.929001 
Al 14.028000 2.751000 39.312000 
Al 11.690000 5.044000 41.694000 
Al 9.352000 1.834000 42.487999 
Al 14.028000 4.127000 44.870998 
Al 11.690000 0.917000 45.665001 
Al 9.352000 3.210000 48.047001 
Al 7.014000 0.000000 48.841999 
Al 9.352000 4.585000 1.985000 
Al 14.028000 1.376000 2.780000 
Al 11.690000 3.668000 5.162000 
Al 9.352000 0.459000 5.956000 
Al 14.028000 2.751000 8.339000 
Al 11.690000 5.044000 10.721000 
Al 9.352000 1.834000 11.515000 
Al 14.028000 4.127000 13.898000 
Al 11.690000 0.917000 14.692000 
Al 9.352000 3.210000 17.075001 
Al 7.014000 0.000000 17.868999 
Al 14.028000 5.502000 19.457001 
Al 11.690000 2.293000 20.250999 
Al 9.352000 4.585000 22.634001 
Al 14.028000 1.376000 23.427999 
Al 11.690000 3.668000 25.811001 
Al 9.352000 0.459000 26.605000 
Al 14.028000 2.751000 28.987000 
Al 11.690000 5.044000 31.370001 
Al 9.352000 1.834000 32.164001 
Al 14.028000 4.127000 34.546001 
Al 11.690000 0.917000 35.341000 
Al 9.352000 3.210000 37.723000 
Al 7.014000 0.000000 38.516998 
Al 14.028000 5.502000 40.105999 
Al 11.690000 2.293000 40.900002 
Al 9.352000 4.585000 43.282001 
Al 14.028000 1.376000 44.077000 
Al 11.690000 3.668000 46.459000 
Al 9.352000 0.459000 47.252998 
Al 14.028000 2.751000 49.636002 
Al 14.028000 0.688000 0.000000 
Al 11.690000 2.980000 2.383000 
Al 9.352000 5.273000 4.765000 
Al 14.028000 2.063000 5.559000 
Al 11.690000 4.356000 7.942000 
Al 9.352000 1.146000 8.736000 
Al 14.028000 3.439000 11.118000 
Al 11.690000 0.229000 11.913000 
Al 11.690000 5.731000 13.501000 
Al 9.352000 2.522000 14.295000 
Al 14.028000 4.814000 16.677999 
Al 11.690000 1.605000 17.472000 
Al 9.352000 3.897000 19.854000 
Al 14.028000 0.688000 20.648001 
Al 11.690000 2.980000 23.031000 
Al 9.352000 5.273000 25.414000 
Al 14.028000 2.063000 26.208000 
Al 11.690000 4.356000 28.590000 
Al 9.352000 1.146000 29.384001 
Al 14.028000 3.439000 31.767000 
Al 11.690000 0.229000 32.561001 
Al 11.690000 5.731000 34.148998 
Al 9.352000 2.522000 34.944000 
Al 14.028000 4.814000 37.326000 
Al 11.690000 1.605000 38.119999 
Al 9.352000 3.897000 40.502998 
Al 14.028000 0.688000 41.297001 
Al 11.690000 2.980000 43.679001 
Al 9.352000 5.273000 46.062000 
Al 14.028000 2.063000 46.855999 
Al 11.690000 4.356000 49.238998 
Al 14.028000 3.439000 0.794000 
Al 11.690000 0.229000 1.588000 
Al 11.690000 5.731000 3.177000
Al 9.352000 2.522000 3.971000 
Al 14.028000 4.814000 6.353000 
Al 11.690000 1.605000 7.148000 
Al 9.352000 3.897000 9.530000 
Al 14.028000 0.688000 10.324000 
Al 11.690000 2.980000 12.707000 
Al 9.352000 5.273000 15.089000 
Al 14.028000 2.063000 15.883000 
Al 11.690000 4.356000 18.266001 
Al 9.352000 1.146000 19.059999 
Al 14.028000 3.439000 21.443001 
Al 11.690000 0.229000 22.237000 
Al 11.690000 5.731000 23.825001 
Al 9.352000 2.522000 24.618999 
Al 14.028000 4.814000 27.002001 
Al 11.690000 1.605000 27.796000 
Al 9.352000 3.897000 30.179001 
Al 14.028000 0.688000 30.973000 
Al 11.690000 2.980000 33.355000 
Al 9.352000 5.273000 35.737999 
Al 14.028000 2.063000 36.532001 
Al 11.690000 4.356000 38.914001 
Al 9.352000 1.146000 39.709000 
Al 14.028000 3.439000 42.091000 
Al 11.690000 0.229000 42.884998 
Al 11.690000 5.731000 44.473999 
Al 9.352000 2.522000 45.268002 
Al 14.028000 4.814000 47.650002 
Al 11.690000 1.605000 48.445000 
Al 7.014000 11.004000 0.397000 
Al 4.676000 7.795000 1.191000 
Al 9.352000 10.087000 3.574000 
Al 7.014000 6.878000 4.368000 
Al 4.676000 9.170000 6.750000 
Al 2.338000 5.961000 7.545000 
Al 9.352000 11.463000 9.133000 
Al 7.014000 8.253000 9.927000 
Al 4.676000 10.546000 12.310000 
Al 9.352000 7.336000 13.104000 
Al 7.014000 9.629000 15.486000 
Al 4.676000 6.419000 16.281000 
Al 9.352000 8.712000 18.663000 
Al 7.014000 11.004000 21.046000 
Al 4.676000 7.795000 21.840000 
Al 9.352000 10.087000 24.222000 
Al 7.014000 6.878000 25.016001 
Al 4.676000 9.170000 27.399000 
Al 2.338000 5.961000 28.193001 
Al 9.352000 11.463000 29.781000 
Al 7.014000 8.253000 30.576000 
Al 4.676000 10.546000 32.958000 
Al 9.352000 7.336000 33.751999 
Al 7.014000 9.629000 36.134998 
Al 4.676000 6.419000 36.929001 
Al 9.352000 8.712000 39.312000 
Al 7.014000 11.004000 41.694000 
Al 4.676000 7.795000 42.487999 
Al 9.352000 10.087000 44.870998 
Al 7.014000 6.878000 45.665001 
Al 4.676000 9.170000 48.047001 
Al 2.338000 5.961000 48.841999 
Al 4.676000 10.546000 1.985000 
Al 9.352000 7.336000 2.780000 
Al 7.014000 9.629000 5.162000 
Al 4.676000 6.419000 5.956000 
Al 9.352000 8.712000 8.339000 
Al 7.014000 11.004000 10.721000 
Al 4.676000 7.795000 11.515000 
Al 9.352000 10.087000 13.898000 
Al 7.014000 6.878000 14.692000 
Al 4.676000 9.170000 17.075001 
Al 2.338000 5.961000 17.868999 
Al 9.352000 11.463000 19.457001 
Al 7.014000 8.253000 20.250999 
Al 4.676000 10.546000 22.634001 
Al 9.352000 7.336000 23.427999 
Al 7.014000 9.629000 25.811001 
Al 4.676000 6.419000 26.605000 
Al 9.352000 8.712000 28.987000 
Al 7.014000 11.004000 31.370001 
Al 4.676000 7.795000 32.164001 
Al 9.352000 10.087000 34.546001 
Al 7.014000 6.878000 35.341000 
Al 4.676000 9.170000 37.723000 
Al 2.338000 5.961000 38.516998 
Al 9.352000 11.463000 40.105999 
Al 7.014000 8.253000 40.900002 
Al 4.676000 10.546000 43.282001 
Al 9.352000 7.336000 44.077000 
Al 7.014000 9.629000 46.459000 
Al 4.676000 6.419000 47.252998 
Al 9.352000 8.712000 49.636002 
Al 9.352000 6.648000 0.000000 
Al 7.014000 8.941000 2.383000 
Al 4.676000 11.234000 4.765000 
Al 9.352000 8.024000 5.559000 
Al 7.014000 10.317000 7.942000 
Al 4.676000 7.107000 8.736000 
Al 9.352000 9.400000 11.118000 
Al 7.014000 6.190000 11.913000 
Al 7.014000 11.692000 13.501000 
Al 4.676000 8.483000 14.295000 
Al 9.352000 10.775000 16.677999 
Al 7.014000 7.566000 17.472000 
Al 4.676000 9.858000 19.854000 
Al 9.352000 6.648000 20.648001 
Al 7.014000 8.941000 23.031000 
Al 4.676000 11.234000 25.414000 
Al 9.352000 8.024000 26.208000 
Al 7.014000 10.317000 28.590000 
Al 4.676000 7.107000 29.384001 
Al 9.352000 9.400000 31.767000 
Al 7.014000 6.190000 32.561001 
Al 7.014000 11.692000 34.148998 
Al 4.676000 8.483000 34.944000 
Al 9.352000 10.775000 37.326000 
Al 7.014000 7.566000 38.119999 
Al 4.676000 9.858000 40.502998 
Al 9.352000 6.648000 41.297001 
Al 7.014000 8.941000 43.679001 
Al 4.676000 11.234000 46.062000 
Al 9.352000 8.024000 46.855999 
Al 7.014000 10.317000 49.238998 
Al 9.352000 9.400000 0.794000 
Al 7.014000 6.190000 1.588000 
Al 7.014000 11.692000 3.177000 
Al 4.676000 8.483000 3.971000 
Al 9.352000 10.775000 6.353000 
Al 7.014000 7.566000 7.148000 
Al 4.676000 9.858000 9.530000 
Al 9.352000 6.648000 10.324000 
Al 7.014000 8.941000 12.707000 
Al 4.676000 11.234000 15.089000 
Al 9.352000 8.024000 15.883000 
Al 7.014000 10.317000 18.266001 
Al 4.676000 7.107000 19.059999 
Al 9.352000 9.400000 21.443001 
Al 7.014000 6.190000 22.237000 
Al 7.014000 11.692000 23.825001 
Al 4.676000 8.483000 24.618999 
Al 9.352000 10.775000 27.002001 
Al 7.014000 7.566000 27.796000 
Al 4.676000 9.858000 30.179001 
Al 9.352000 6.648000 30.973000 
Al 7.014000 8.941000 33.355000 
Al 4.676000 11.234000 35.737999 
Al 9.352000 8.024000 36.532001 
Al 7.014000 10.317000 38.914001 
Al 4.676000 7.107000 39.709000 
Al 9.352000 9.400000 42.091000 
Al 7.014000 6.190000 42.884998 
Al 7.014000 11.692000 44.473999 
Al 4.676000 8.483000 45.268002 
Al 9.352000 10.775000 47.650002 
Al 7.014000 7.566000 48.445000 
Al 14.028000 11.004000 0.397000 
Al 11.690000 7.795000 1.191000 
Al 16.365999 10.087000 3.574000 
Al 14.028000 6.878000 4.368000 
Al 11.690000 9.170000 6.750000 
Al 9.352000 5.961000 7.545000 
Al 16.365999 11.463000 9.133000 
Al 14.028000 8.253000 9.927000 
Al 11.690000 10.546000 12.310000 
Al 16.365999 7.336000 13.104000 
Al 14.028000 9.629000 15.486000 
Al 11.690000 6.419000 16.281000 
Al 16.365999 8.712000 18.663000 
Al 14.028000 11.004000 21.046000 
Al 11.690000 7.795000 21.840000 
Al 16.365999 10.087000 24.222000 
Al 14.028000 6.878000 25.016001 
Al 11.690000 9.170000 27.399000 
Al 9.352000 5.961000 28.193001 
Al 16.365999 11.463000 29.781000 
Al 14.028000 8.253000 30.576000 
Al 11.690000 10.546000 32.958000 
Al 16.365999 7.336000 33.751999 
Al 14.028000 9.629000 36.134998 
Al 11.690000 6.419000 36.929001 
Al 16.365999 8.712000 39.312000 
Al 14.028000 11.004000 41.694000 
Al 11.690000 7.795000 42.487999 
Al 16.365999 10.087000 44.870998 
Al 14.028000 6.878000 45.665001 
Al 11.690000 9.170000 48.047001 
Al 9.352000 5.961000 48.841999 
Al 11.690000 10.546000 1.985000 
Al 16.365999 7.336000 2.780000 
Al 14.028000 9.629000 5.162000 
Al 11.690000 6.419000 5.956000 
Al 16.365999 8.712000 8.339000 
Al 14.028000 11.004000 10.721000 
Al 11.690000 7.795000 11.515000 
Al 16.365999 10.087000 13.898000 
Al 14.028000 6.878000 14.692000 
Al 11.690000 9.170000 17.075001 
Al 9.352000 5.961000 17.868999 
Al 16.365999 11.463000 19.457001 
Al 14.028000 8.253000 20.250999 
Al 11.690000 10.546000 22.634001 
Al 16.365999 7.336000 23.427999 
Al 14.028000 9.629000 25.811001 
Al 11.690000 6.419000 26.605000 
Al 16.365999 8.712000 28.987000 
Al 14.028000 11.004000 31.370001 
Al 11.690000 7.795000 32.164001 
Al 16.365999 10.087000 34.546001 
Al 14.028000 6.878000 35.341000 
Al 11.690000 9.170000 37.723000 
Al 9.352000 5.961000 38.516998 
Al 16.365999 11.463000 40.105999 
Al 14.028000 8.253000 40.900002 
Al 11.690000 10.546000 43.282001 
Al 16.365999 7.336000 44.077000 
Al 14.028000 9.629000 46.459000 
Al 11.690000 6.419000 47.252998 
Al 16.365999 8.712000 49.636002 
Al 16.365999 6.648000 0.000000 
Al 14.028000 8.941000 2.383000 
Al 11.690000 11.234000 4.765000 
Al 16.365999 8.024000 5.559000 
Al 14.028000 10.317000 7.942000 
Al 11.690000 7.107000 8.736000 
Al 16.365999 9.400000 11.118000 
Al 14.028000 6.190000 11.913000 
Al 14.028000 11.692000 13.501000 
Al 11.690000 8.483000 14.295000 
Al 16.365999 10.775000 16.677999 
Al 14.028000 7.566000 17.472000 
Al 11.690000 9.858000 19.854000 
Al 16.365999 6.648000 20.648001 
Al 14.028000 8.941000 23.031000 
Al 11.690000 11.234000 25.414000 
Al 16.365999 8.024000 26.208000 
Al 14.028000 10.317000 28.590000 
Al 11.690000 7.107000 29.384001 
Al 16.365999 9.400000 31.767000 
Al 14.028000 6.190000 32.561001 
Al 14.028000 11.692000 34.148998 
Al 11.690000 8.483000 34.944000 
Al 16.365999 10.775000 37.326000 
Al 14.028000 7.566000 38.119999 
Al 11.690000 9.858000 40.502998 
Al 16.365999 6.648000 41.297001 
Al 14.028000 8.941000 43.679001 
Al 11.690000 11.234000 46.062000 
Al 16.365999 8.024000 46.855999 
Al 14.028000 10.317000 49.238998 
Al 16.365999 9.400000 0.794000 
Al 14.028000 6.190000 1.588000 
Al 14.028000 11.692000 3.177000 
Al 11.690000 8.483000 3.971000 
Al 16.365999 10.775000 6.353000 
Al 14.028000 7.566000 7.148000 
Al 11.690000 9.858000 9.530000 
Al 16.365999 6.648000 10.324000 
Al 14.028000 8.941000 12.707000 
Al 11.690000 11.234000 15.089000 
Al 16.365999 8.024000 15.883000 
Al 14.028000 10.317000 18.266001 
Al 11.690000 7.107000 19.059999 
Al 16.365999 9.400000 21.443001 
Al 14.028000 6.190000 22.237000 
Al 14.028000 11.692000 23.825001 
Al 11.690000 8.483000 24.618999 
Al 16.365999 10.775000 27.002001 
Al 14.028000 7.566000 27.796000 
Al 11.690000 9.858000 30.179001 
Al 16.365999 6.648000 30.973000 
Al 14.028000 8.941000 33.355000 
Al 11.690000 11.234000 35.737999 
Al 16.365999 8.024000 36.532001 
Al 14.028000 10.317000 38.914001 
Al 11.690000 7.107000 39.709000 
Al 16.365999 9.400000 42.091000 
Al 14.028000 6.190000 42.884998 
Al 14.028000 11.692000 44.473999 
Al 11.690000 8.483000 45.268002 
Al 16.365999 10.775000 47.650002 
Al 14.028000 7.566000 48.445000
