214
Au9
Au    1.475239    2.555189   38.578144
Au    1.475239    7.665565   38.578144
Au    4.425717    2.555189   38.578144
Au    4.425717    7.665565   38.578144
Au    7.376195    2.555189   38.578144
Au    7.376195    7.665565   38.578144
Au   10.326674    2.555189   38.578144
Au   10.326674    7.665565   38.578144
Au    0.000000    0.000000   38.578144
Au    0.000000   10.220754   38.578144
Au   11.801912    0.000000   38.578144
Au   11.801912   10.220754   38.578144
Au    0.000000    5.110377   38.578144
Au   11.801912    5.110377   38.578144
Au    2.950478    0.000000   38.578144
Au    2.950478   10.220754   38.578144
Au    2.950478    5.110377   38.578144
Au    5.900956    0.000000   38.578144
Au    5.900956   10.220754   38.578144
Au    5.900956    5.110377   38.578144
Au    8.851435    0.000000   38.578144
Au    8.851435   10.220754   38.578144
Au    8.851435    5.110377   38.578144
Au    0.000000    3.406917   36.150642
Au   11.801912    3.406917   36.150642
Au    0.000000    8.517294   36.150642
Au   11.801912    8.517294   36.150642
Au    2.950478    3.406917   36.150642
Au    2.950478    8.517294   36.150642
Au    5.900956    3.406917   36.150642
Au    5.900956    8.517294   36.150642
Au    8.851435    3.406917   36.150642
Au    8.851435    8.517294   36.150642
Au    1.475240    0.851729   36.150642
Au    1.475240    5.962105   36.150642
Au    4.425718    0.851729   36.150642
Au    4.425718    5.962105   36.150642
Au    7.376196    0.851729   36.150642
Au    7.376196    5.962105   36.150642
Au   10.326674    0.851729   36.150642
Au   10.326674    5.962105   36.150642
Au    1.475237    4.258648   33.742001
Au    1.475237    9.369025   33.742001
Au    4.425715    4.258648   33.742001
Au    4.425715    9.369025   33.742001
Au    7.376193    4.258648   33.742001
Au    7.376193    9.369025   33.742001
Au   10.326672    4.258648   33.742001
Au   10.326672    9.369025   33.742001
Au    0.000000    1.703460   33.742001
Au   11.801912    1.703460   33.742001
Au    0.000000    6.813837   33.742001
Au   11.801912    6.813837   33.742001
Au    2.950478    1.703460   33.742001
Au    2.950478    6.813837   33.742001
Au    5.900956    1.703460   33.742001
Au    5.900956    6.813837   33.742001
Au    8.851435    1.703460   33.742001
Au    8.851435    6.813837   33.742001
Au    1.475239    2.555189   31.327246
Au    1.475239    7.665565   31.327246
Au    4.425717    2.555189   31.327246
Au    4.425717    7.665565   31.327246
Au    7.376195    2.555189   31.327246
Au    7.376195    7.665565   31.327246
Au   10.326674    2.555189   31.327246
Au   10.326674    7.665565   31.327246
Au    0.000000    0.000000   31.327246
Au    0.000000   10.220754   31.327246
Au   11.801912    0.000000   31.327246
Au   11.801912   10.220754   31.327246
Au    0.000000    5.110377   31.327246
Au   11.801912    5.110377   31.327246
Au    2.950478    0.000000   31.327246
Au    2.950478   10.220754   31.327246
Au    2.950478    5.110377   31.327246
Au    5.900956    0.000000   31.327246
Au    5.900956   10.220754   31.327246
Au    5.900956    5.110377   31.327246
Au    8.851435    0.000000   31.327246
Au    8.851435   10.220754   31.327246
Au    8.851435    5.110377   31.327246
Au    0.000000    3.406917   28.899742
Au   11.801912    3.406917   28.899742
Au    0.000000    8.517294   28.899742
Au   11.801912    8.517294   28.899742
Au    2.950478    3.406917   28.899742
Au    2.950478    8.517294   28.899742
Au    5.900956    3.406917   28.899742
Au    5.900956    8.517294   28.899742
Au    8.851435    3.406917   28.899742
Au    8.851435    8.517294   28.899742
Au    1.475240    0.851729   28.899742
Au    1.475240    5.962105   28.899742
Au    4.425718    0.851729   28.899742
Au    4.425718    5.962105   28.899742
Au    7.376196    0.851729   28.899742
Au    7.376196    5.962105   28.899742
Au   10.326674    0.851729   28.899742
Au   10.326674    5.962105   28.899742
Au    1.475237    4.258648   26.504889
Au    1.475237    9.369025   26.504889
Au    4.425715    4.258648   26.504889
Au    4.425715    9.369025   26.504889
Au    7.376193    4.258648   26.504889
Au    7.376193    9.369025   26.504889
Au   10.326672    4.258648   26.504889
Au   10.326672    9.369025   26.504889
Au    0.000000    1.703460   26.504889
Au   11.801912    1.703460   26.504889
Au    0.000000    6.813837   26.504889
Au   11.801912    6.813837   26.504889
Au    2.950478    1.703460   26.504889
Au    2.950478    6.813837   26.504889
Au    5.900956    1.703460   26.504889
Au    5.900956    6.813837   26.504889
Au    8.851435    1.703460   26.504889
Au    8.851435    6.813837   26.504889
Au    1.475239    2.555189   24.090136
Au    1.475239    7.665565   24.090136
Au    4.425717    2.555189   24.090136
Au    4.425717    7.665565   24.090136
Au    7.376195    2.555189   24.090136
Au    7.376195    7.665565   24.090136
Au   10.326674    2.555189   24.090136
Au   10.326674    7.665565   24.090136
Au    0.000000    0.000000   24.090136
Au    0.000000   10.220754   24.090136
Au   11.801912    0.000000   24.090136
Au   11.801912   10.220754   24.090136
Au    0.000000    5.110377   24.090136
Au   11.801912    5.110377   24.090136
Au    2.950478    0.000000   24.090136
Au    2.950478   10.220754   24.090136
Au    2.950478    5.110377   24.090136
Au    5.900956    0.000000   24.090136
Au    5.900956   10.220754   24.090136
Au    5.900956    5.110377   24.090136
Au    8.851435    0.000000   24.090136
Au    8.851435   10.220754   24.090136
Au    8.851435    5.110377   24.090136
Au    0.000000    3.406917   21.681496
Au   11.801912    3.406917   21.681496
Au    0.000000    8.517294   21.681496
Au   11.801912    8.517294   21.681496
Au    2.950478    3.406917   21.681496
Au    2.950478    8.517294   21.681496
Au    5.900956    3.406917   21.681496
Au    5.900956    8.517294   21.681496
Au    8.851435    3.406917   21.681496
Au    8.851435    8.517294   21.681496
Au    1.475240    0.851729   21.681496
Au    1.475240    5.962105   21.681496
Au    4.425718    0.851729   21.681496
Au    4.425718    5.962105   21.681496
Au    7.376196    0.851729   21.681496
Au    7.376196    5.962105   21.681496
Au   10.326674    0.851729   21.681496
Au   10.326674    5.962105   21.681496
Au    1.475237    4.258648   19.272856
Au    1.475237    9.369025   19.272856
Au    4.425715    4.258648   19.272856
Au    4.425715    9.369025   19.272856
Au    7.376193    4.258648   19.272856
Au    7.376193    9.369025   19.272856
Au   10.326672    4.258648   19.272856
Au   10.326672    9.369025   19.272856
Au    0.000000    1.703460   19.272856
Au   11.801912    1.703460   19.272856
Au    0.000000    6.813837   19.272856
Au   11.801912    6.813837   19.272856
Au    2.950478    1.703460   19.272856
Au    2.950478    6.813837   19.272856
Au    5.900956    1.703460   19.272856
Au    5.900956    6.813837   19.272856
Au    8.851435    1.703460   19.272856
Au    8.851435    6.813837   19.272856
Au    1.475239    2.555189   16.858101
Au    1.475239    7.665565   16.858101
Au    4.425717    2.555189   16.858101
Au    4.425717    7.665565   16.858101
Au    7.376195    2.555189   16.858101
Au    7.376195    7.665565   16.858101
Au   10.326674    2.555189   16.858101
Au   10.326674    7.665565   16.858101
Au    0.000000    0.000000   16.858101
Au    0.000000   10.220754   16.858101
Au   11.801912    0.000000   16.858101
Au   11.801912   10.220754   16.858101
Au    0.000000    5.110377   16.858101
Au   11.801912    5.110377   16.858101
Au    2.950478    0.000000   16.858101
Au    2.950478   10.220754   16.858101
Au    2.950478    5.110377   16.858101
Au    5.900956    0.000000   16.858101
Au    5.900956   10.220754   16.858101
Au    5.900956    5.110377   16.858101
Au    8.851435    0.000000   16.858101
Au    8.851435   10.220754   16.858101
Au    8.851435    5.110377   16.858101
 S    3.961812    5.702621   41.837921
 O    6.884223    3.340097   44.166859
 O    6.549988    5.538994   44.017849
 N    6.985700    2.919842   41.548882
 C    4.809459    4.087427   41.751919
 C    6.323683    4.185550   41.973839
 C    6.609367    4.458233   43.455727
 H    4.347180    3.424589   42.492214
 H    4.595837    3.675557   40.759453
 H    6.767136    4.992956   41.380646
 H    6.763723    2.208970   42.253284
 H    7.995816    3.044921   41.633511
 H    4.404171    6.057247   43.056942
 H    7.000715    3.667162   45.084740
