177
Zn2 O2
Zn    9.867308    9.494822   13.269959
Zn    9.867308    3.797929   13.269959
Zn    3.289103    9.494822   13.269959
Zn    3.289103    3.797929   13.269959
Zn    9.867308    9.494822    7.963140
Zn    9.867308    3.797929    7.963140
Zn    3.289103    9.494822    7.963140
Zn    3.289103    3.797929    7.963140
Zn   11.511859    6.646375   13.269959
Zn   11.511859    0.949483   13.269959
Zn    4.933654    6.646375   13.269959
Zn    4.933654    0.949483   13.269959
Zn   11.511859    6.646375    7.963140
Zn   11.511859    0.949483    7.963140
Zn    4.933654    6.646375    7.963140
Zn    4.933654    0.949483    7.963140
Zn    6.578205    9.494822   13.269959
Zn    6.578205    3.797929   13.269959
Zn    0.000000    9.494822   13.269959
Zn   13.156410    9.494822   13.269959
Zn    0.000000    3.797929   13.269959
Zn   13.156410    3.797929   13.269959
Zn    6.578205    9.494822    7.963140
Zn    6.578205    3.797929    7.963140
Zn    0.000000    9.494822    7.963140
Zn   13.156410    9.494822    7.963140
Zn    0.000000    3.797929    7.963140
Zn   13.156410    3.797929    7.963140
Zn    8.222756    6.646375   13.269959
Zn    8.222756    0.949483   13.269959
Zn    1.644551    6.646375   13.269959
Zn    1.644551    0.949483   13.269959
Zn    8.222756    6.646375    7.963140
Zn    8.222756    0.949483    7.963140
Zn    1.644551    6.646375    7.963140
Zn    1.644551    0.949483    7.963140
Zn    8.222756   10.444304   10.616550
Zn    8.222756    4.747412   10.616550
Zn    1.644551   10.444304   10.616550
Zn    1.644551    4.747412   10.616550
Zn    8.222756   10.444304    5.309729
Zn    8.222756    4.747412    5.309729
Zn    1.644551   10.444304    5.309729
Zn    1.644551    4.747412    5.309729
Zn    9.867308    7.595857   10.616550
Zn    9.867308    1.898965   10.616550
Zn    3.289103    7.595857   10.616550
Zn    3.289103    1.898965   10.616550
Zn    9.867308    7.595857    5.309729
Zn    9.867308    1.898965    5.309729
Zn    3.289103    7.595857    5.309729
Zn    3.289103    1.898965    5.309729
Zn   11.511859   10.444304   10.616550
Zn   11.511859    4.747412   10.616550
Zn    4.933654   10.444304   10.616550
Zn    4.933654    4.747412   10.616550
Zn   11.511859   10.444304    5.309729
Zn   11.511859    4.747412    5.309729
Zn    4.933654   10.444304    5.309729
Zn    4.933654    4.747412    5.309729
Zn    6.578205    7.595857   10.616550
Zn    6.578205    1.898965   10.616550
Zn    0.000000    7.595857   10.616550
Zn   13.156410    7.595857   10.616550
Zn    0.000000    1.898965   10.616550
Zn   13.156410    1.898965   10.616550
Zn    6.578205    7.595857    5.309729
Zn    6.578205    1.898965    5.309729
Zn    0.000000    7.595857    5.309729
Zn   13.156410    7.595857    5.309729
Zn    0.000000    1.898965    5.309729
Zn   13.156410    1.898965    5.309729
 O   11.511859   10.444304   12.628971
 O   11.511859    4.747412   12.628971
 O    4.933654   10.444304   12.628971
 O    4.933654    4.747412   12.628971
 O   11.511859   10.444304    7.322150
 O   11.511859    4.747412    7.322150
 O    4.933654   10.444304    7.322150
 O    4.933654    4.747412    7.322150
 O    1.644550   10.444304   12.628971
 O    1.644550    4.747412   12.628971
 O    8.222754   10.444304   12.628971
 O    8.222754    4.747412   12.628971
 O    1.644550   10.444304    7.322150
 O    1.644550    4.747412    7.322150
 O    8.222754   10.444304    7.322150
 O    8.222754    4.747412    7.322150
 O    8.222756    0.949483    9.975560
 O    8.222756    6.646375    9.975560
 O    1.644551    0.949483    9.975560
 O    1.644551    6.646375    9.975560
 O    8.222756    0.949483    4.668738
 O    8.222756    6.646375    4.668738
 O    1.644551    0.949483    4.668738
 O    1.644551    6.646375    4.668738
 O   11.511859    0.949483    9.975560
 O   11.511859    6.646375    9.975560
 O    4.933654    0.949483    9.975560
 O    4.933654    6.646375    9.975560
 O   11.511859    0.949483    4.668738
 O   11.511859    6.646375    4.668738
 O    4.933654    0.949483    4.668738
 O    4.933654    6.646375    4.668738
 O    9.867308    9.494822    9.975560
 O    9.867308    3.797929    9.975560
 O    3.289103    9.494822    9.975560
 O    3.289103    3.797929    9.975560
 O    9.867308    9.494822    4.668738
 O    9.867308    3.797929    4.668738
 O    3.289103    9.494822    4.668738
 O    3.289103    3.797929    4.668738
 O    6.578205    9.494822    9.975560
 O    6.578205    3.797929    9.975560
 O    0.000000    9.494822    9.975560
 O   13.156410    9.494822    9.975560
 O    0.000000    3.797929    9.975560
 O   13.156410    3.797929    9.975560
 O    6.578205    9.494822    4.668738
 O    6.578205    3.797929    4.668738
 O    0.000000    9.494822    4.668738
 O   13.156410    9.494822    4.668738
 O    0.000000    3.797929    4.668738
 O   13.156410    3.797929    4.668738
 O    9.867308    7.595857   12.628971
 O    9.867308    1.898965   12.628971
 O    3.289103    7.595857   12.628971
 O    3.289103    1.898965   12.628971
 O    9.867308    7.595857    7.322150
 O    9.867308    1.898965    7.322150
 O    3.289103    7.595857    7.322150
 O    3.289103    1.898965    7.322150
 O    6.578205    7.595857   12.628971
 O    6.578205    1.898965   12.628971
 O    0.000000    7.595857   12.628971
 O   13.156410    7.595857   12.628971
 O    0.000000    1.898965   12.628971
 O   13.156410    1.898965   12.628971
 O    6.578205    7.595857    7.322150
 O    6.578205    1.898965    7.322150
 O    0.000000    7.595857    7.322150
 O   13.156410    7.595857    7.322150
 O    0.000000    1.898965    7.322150
 O   13.156410    1.898965    7.322150
Ag    6.578205    5.696893   13.269959
 O   11.511859   -0.949482   12.628971
 O    4.933654   -0.949482   12.628971
 O   11.511859   -0.949482    7.322150
 O    4.933654   -0.949482    7.322150
 O   -1.644551   10.444304   12.628971
 O   14.800960   10.444304   12.628971
 O   -1.644551    4.747412   12.628971
 O   14.800960    4.747412   12.628971
 O   -1.644551   10.444304    7.322150
 O   14.800960   10.444304    7.322150
 O   -1.644551    4.747412    7.322150
 O   14.800960    4.747412    7.322150
 O    8.222754   -0.949481   12.628971
 O    1.644550   -0.949481   12.628971
 O    8.222754   -0.949481    7.322150
 O    1.644550   -0.949481    7.322150
 O    8.222756   12.343268    9.975560
 O    1.644551   12.343268    9.975560
 O    8.222756   12.343268    4.668738
 O    1.644551   12.343268    4.668738
 O   11.511859   12.343268    9.975560
 O    4.933654   12.343268    9.975560
 O   11.511859   12.343268    4.668738
 O    4.933654   12.343268    4.668738
 O   -1.644551    6.646375    9.975560
 O   14.800961    6.646375    9.975560
 O   -1.644551    0.949483    9.975560
 O   14.800961    0.949483    9.975560
 O   -1.644551    6.646375    4.668738
 O   14.800961    6.646375    4.668738
 O   -1.644551    0.949483    4.668738
 O   14.800961    0.949483    4.668738
