282
Zn2 O2
Zn    0.000000    1.898964    0.002908
Zn   13.156410    1.898964    0.002908
Zn    0.000000    1.898964    5.309729
Zn   13.156410    1.898964    5.309729
Zn    0.000000    1.898964   10.616550
Zn   13.156410    1.898964   10.616550
Zn    0.000000    7.595857    0.002908
Zn   13.156410    7.595857    0.002908
Zn    0.000000    7.595857    5.309729
Zn   13.156410    7.595857    5.309729
Zn    0.000000    7.595857   10.616550
Zn   13.156410    7.595857   10.616550
Zn    6.578205    1.898964    0.002908
Zn    6.578205    1.898964    5.309729
Zn    6.578205    1.898964   10.616550
Zn    6.578205    7.595857    0.002908
Zn    6.578205    7.595857    5.309729
Zn    6.578205    7.595857   10.616550
Zn    4.933654    4.747411    0.002908
Zn    4.933654    4.747411    5.309729
Zn    4.933654    4.747411   10.616550
Zn    4.933654   10.444304    0.002908
Zn    4.933654   10.444304    5.309729
Zn    4.933654   10.444304   10.616550
Zn   11.511859    4.747411    0.002908
Zn   11.511859    4.747411    5.309729
Zn   11.511859    4.747411   10.616550
Zn   11.511859   10.444304    0.002908
Zn   11.511859   10.444304    5.309729
Zn   11.511859   10.444304   10.616550
Zn    3.289103    1.898964    0.002908
Zn    3.289103    1.898964    5.309729
Zn    3.289103    1.898964   10.616550
Zn    3.289103    7.595857    0.002908
Zn    3.289103    7.595857    5.309729
Zn    3.289103    7.595857   10.616550
Zn    9.867308    1.898964    0.002908
Zn    9.867308    1.898964    5.309729
Zn    9.867308    1.898964   10.616550
Zn    9.867308    7.595857    0.002908
Zn    9.867308    7.595857    5.309729
Zn    9.867308    7.595857   10.616550
Zn    1.644552    4.747411    0.002908
Zn    1.644552    4.747411    5.309729
Zn    1.644552    4.747411   10.616550
Zn    1.644552   10.444304    0.002908
Zn    1.644552   10.444304    5.309729
Zn    1.644552   10.444304   10.616550
Zn    8.222756    4.747411    0.002908
Zn    8.222756    4.747411    5.309729
Zn    8.222756    4.747411   10.616550
Zn    8.222756   10.444304    0.002908
Zn    8.222756   10.444304    5.309729
Zn    8.222756   10.444304   10.616550
Zn    1.644552    0.949482    2.656318
Zn    1.644552    0.949482    7.963140
Zn    1.644552    0.949482   13.269960
Zn    1.644552    6.646375    2.656318
Zn    1.644552    6.646375    7.963140
Zn    1.644552    6.646375   13.269960
Zn    8.222756    0.949482    2.656318
Zn    8.222756    0.949482    7.963140
Zn    8.222756    0.949482   13.269960
Zn    8.222756    6.646375    2.656318
Zn    8.222756    6.646375    7.963140
Zn    8.222756    6.646375   13.269960
Zn    0.000000    3.797929    2.656318
Zn   13.156410    3.797929    2.656318
Zn    0.000000    3.797929    7.963140
Zn   13.156410    3.797929    7.963140
Zn    0.000000    3.797929   13.269960
Zn   13.156410    3.797929   13.269960
Zn    0.000000    9.494822    2.656318
Zn   13.156410    9.494822    2.656318
Zn    0.000000    9.494822    7.963140
Zn   13.156410    9.494822    7.963140
Zn    0.000000    9.494822   13.269960
Zn   13.156410    9.494822   13.269960
Zn    6.578205    3.797929    2.656318
Zn    6.578205    3.797929    7.963140
Zn    6.578205    3.797929   13.269960
Zn    6.578205    9.494822    2.656318
Zn    6.578205    9.494822    7.963140
Zn    6.578205    9.494822   13.269960
Zn    4.933654    0.949482    2.656318
Zn    4.933654    0.949482    7.963140
Zn    4.933654    0.949482   13.269960
Zn    4.933654    6.646375    2.656318
Zn    4.933654    6.646375    7.963140
Zn    4.933654    6.646375   13.269960
Zn   11.511859    0.949482    2.656318
Zn   11.511859    0.949482    7.963140
Zn   11.511859    0.949482   13.269960
Zn   11.511859    6.646375    2.656318
Zn   11.511859    6.646375    7.963140
Zn   11.511859    6.646375   13.269960
Zn    3.289103    3.797929    2.656318
Zn    3.289103    3.797929    7.963140
Zn    3.289103    3.797929   13.269960
Zn    3.289103    9.494822    2.656318
Zn    3.289103    9.494822    7.963140
Zn    3.289103    9.494822   13.269960
Zn    9.867308    3.797929    2.656318
Zn    9.867308    3.797929    7.963140
Zn    9.867308    3.797929   13.269960
Zn    9.867308    9.494822    2.656318
Zn    9.867308    9.494822    7.963140
Zn    9.867308    9.494822   13.269960
 O    0.000000    1.898964    2.015329
 O   13.156410    1.898964    2.015329
 O    0.000000    1.898964    7.322150
 O   13.156410    1.898964    7.322150
 O    0.000000    1.898964   12.628971
 O   13.156410    1.898964   12.628971
 O    0.000000    7.595857    2.015329
 O   13.156410    7.595857    2.015329
 O    0.000000    7.595857    7.322150
 O   13.156410    7.595857    7.322150
 O    0.000000    7.595857   12.628971
 O   13.156410    7.595857   12.628971
 O    6.578205    1.898964    2.015329
 O    6.578205    1.898964    7.322150
 O    6.578205    1.898964   12.628971
 O    6.578205    7.595857    2.015329
 O    6.578205    7.595857    7.322150
 O    6.578205    7.595857   12.628971
 O    4.933654    4.747411    2.015329
 O    4.933654    4.747411    7.322150
 O    4.933654    4.747411   12.628971
 O    4.933654   10.444304    2.015329
 O    4.933654   10.444304    7.322150
 O    4.933654   10.444304   12.628971
 O   11.511859    4.747411    2.015329
 O   11.511859    4.747411    7.322150
 O   11.511859    4.747411   12.628971
 O   11.511859   10.444304    2.015329
 O   11.511859   10.444304    7.322150
 O   11.511859   10.444304   12.628971
 O    3.289103    1.898964    2.015329
 O    3.289103    1.898964    7.322150
 O    3.289103    1.898964   12.628971
 O    3.289103    7.595857    2.015329
 O    3.289103    7.595857    7.322150
 O    3.289103    7.595857   12.628971
 O    9.867308    1.898964    2.015329
 O    9.867308    1.898964    7.322150
 O    9.867308    1.898964   12.628971
 O    9.867308    7.595857    2.015329
 O    9.867308    7.595857    7.322150
 O    9.867308    7.595857   12.628971
 O    1.644552    4.747411    2.015329
 O    1.644552    4.747411    7.322150
 O    1.644552    4.747411   12.628971
 O    1.644552   10.444304    2.015329
 O    1.644552   10.444304    7.322150
 O    1.644552   10.444304   12.628971
 O    8.222756    4.747411    2.015329
 O    8.222756    4.747411    7.322150
 O    8.222756    4.747411   12.628971
 O    8.222756   10.444304    2.015329
 O    8.222756   10.444304    7.322150
 O    8.222756   10.444304   12.628971
 O    1.644552    0.949482    4.668739
 O    1.644552    0.949482    9.975560
 O    1.644552    0.949482   15.282381
 O    1.644552    6.646375    4.668739
 O    1.644552    6.646375    9.975560
 O    1.644552    6.646375   15.282381
 O    8.222756    0.949482    4.668739
 O    8.222756    0.949482    9.975560
 O    8.222756    0.949482   15.282381
 O    8.222756    6.646375    4.668739
 O    8.222756    6.646375    9.975560
 O    8.222756    6.646375   15.282381
 O    0.000000    3.797929    4.668739
 O   13.156410    3.797929    4.668739
 O    0.000000    3.797929    9.975560
 O   13.156410    3.797929    9.975560
 O    0.000000    3.797929   15.282381
 O   13.156410    3.797929   15.282381
 O    0.000000    9.494822    4.668739
 O   13.156410    9.494822    4.668739
 O    0.000000    9.494822    9.975560
 O   13.156410    9.494822    9.975560
 O    0.000000    9.494822   15.282381
 O   13.156410    9.494822   15.282381
 O    6.578205    3.797929    4.668739
 O    6.578205    3.797929    9.975560
 O    6.578205    3.797929   15.282381
 O    6.578205    9.494822    4.668739
 O    6.578205    9.494822    9.975560
 O    6.578205    9.494822   15.282381
 O    4.933654    0.949482    4.668739
 O    4.933654    0.949482    9.975560
 O    4.933654    0.949482   15.282381
 O    4.933654    6.646375    4.668739
 O    4.933654    6.646375    9.975560
 O    4.933654    6.646375   15.282381
 O   11.511859    0.949482    4.668739
 O   11.511859    0.949482    9.975560
 O   11.511859    0.949482   15.282381
 O   11.511859    6.646375    4.668739
 O   11.511859    6.646375    9.975560
 O   11.511859    6.646375   15.282381
 O    3.289103    3.797929    4.668739
 O    3.289103    3.797929    9.975560
 O    3.289103    3.797929   15.282381
 O    3.289103    9.494822    4.668739
 O    3.289103    9.494822    9.975560
 O    3.289103    9.494822   15.282381
 O    9.867308    3.797929    4.668739
 O    9.867308    3.797929    9.975560
 O    9.867308    3.797929   15.282381
 O    9.867308    9.494822    4.668739
 O    9.867308    9.494822    9.975560
 O    9.867308    9.494822   15.282381
 O   -1.644551    0.949482   -0.638082
 O    1.644552    0.949482   -0.638082
 O    0.000000    3.797929   -0.638082
 O   11.511859    0.949482   -0.638082
 O   14.800961    0.949482   -0.638082
 O   13.156410    3.797929   -0.638082
 O   -1.644551    0.949482    4.668739
 O   14.800961    0.949482    4.668739
 O   -1.644551    0.949482    9.975560
 O   14.800961    0.949482    9.975560
 O   -1.644551    6.646375   -0.638082
 O    1.644552    6.646375   -0.638082
 O    0.000000    9.494822   -0.638082
 O   11.511859    6.646375   -0.638082
 O   14.800961    6.646375   -0.638082
 O   13.156410    9.494822   -0.638082
 O   -1.644551    6.646375    4.668739
 O   14.800961    6.646375    4.668739
 O   -1.644551    6.646375    9.975560
 O   14.800961    6.646375    9.975560
 O    4.933654    0.949482   -0.638082
 O    8.222756    0.949482   -0.638082
 O    6.578205    3.797929   -0.638082
 O    4.933654    6.646375   -0.638082
 O    8.222756    6.646375   -0.638082
 O    6.578205    9.494822   -0.638082
 O    3.289103    3.797929   -0.638082
 O    3.289103    9.494822   -0.638082
 O    4.933654   12.343267   -0.638082
 O    4.933654   12.343267    4.668739
 O    4.933654   12.343267    9.975560
 O    9.867308    3.797929   -0.638082
 O    9.867308    9.494822   -0.638082
 O   11.511859   12.343267   -0.638082
 O   11.511859   12.343267    4.668739
 O   11.511859   12.343267    9.975560
 O    1.644552   12.343267   -0.638082
 O    1.644552   12.343267    4.668739
 O    1.644552   12.343267    9.975560
 O    8.222756   12.343267   -0.638082
 O    8.222756   12.343267    4.668739
 O    8.222756   12.343267    9.975560
 O    1.644552   -0.949482    2.015329
 O    1.644552   -0.949482    7.322150
 O    1.644552   -0.949482   12.628971
 O    8.222756   -0.949482    2.015329
 O    8.222756   -0.949482    7.322150
 O    8.222756   -0.949482   12.628971
 O   -1.644551    4.747411    2.015329
 O   14.800961    4.747411    2.015329
 O   -1.644551    4.747411    7.322150
 O   14.800961    4.747411    7.322150
 O   -1.644551    4.747411   12.628971
 O   14.800961    4.747411   12.628971
 O   -1.644551   10.444304    2.015329
 O   14.800961   10.444304    2.015329
 O   -1.644551   10.444304    7.322150
 O   14.800961   10.444304    7.322150
 O   -1.644551   10.444304   12.628971
 O   14.800961   10.444304   12.628971
 O    4.933654   -0.949482    2.015329
 O    4.933654   -0.949482    7.322150
 O    4.933654   -0.949482   12.628971
 O   11.511859   -0.949482    2.015329
 O   11.511859   -0.949482    7.322150
 O   11.511859   -0.949482   12.628971
