648
Cu-BTC
Cu    7.515658    7.515658    0.000000
Cu    7.515658    7.515658   26.343000
Cu   18.827341   18.827341    0.000000
Cu   18.827341   18.827341   26.343000
Cu   18.827341    7.515658    0.000000
Cu   18.827341    7.515658   26.343000
Cu    7.515658   18.827341    0.000000
Cu    7.515658   18.827341   26.343000
Cu    0.000000    7.515658    7.515658
Cu   26.343000    7.515658    7.515658
Cu    0.000000   18.827341   18.827341
Cu   26.343000   18.827341   18.827341
Cu    0.000000   18.827341    7.515658
Cu   26.343000   18.827341    7.515658
Cu    0.000000    7.515658   18.827341
Cu   26.343000    7.515658   18.827341
Cu    7.515658    0.000000    7.515658
Cu    7.515658   26.343000    7.515658
Cu   18.827341    0.000000   18.827341
Cu   18.827341   26.343000   18.827341
Cu    7.515658    0.000000   18.827341
Cu    7.515658   26.343000   18.827341
Cu   18.827341    0.000000    7.515658
Cu   18.827341   26.343000    7.515658
Cu    7.515658   20.687159   13.171500
Cu   18.827341    5.655842   13.171500
Cu   18.827341   20.687159   13.171500
Cu    7.515658    5.655842   13.171500
Cu    0.000000   20.687159   20.687159
Cu   26.343000   20.687159   20.687159
Cu    0.000000    5.655842    5.655842
Cu   26.343000    5.655842    5.655842
Cu    0.000000    5.655842   20.687159
Cu   26.343000    5.655842   20.687159
Cu    0.000000   20.687159    5.655842
Cu   26.343000   20.687159    5.655842
Cu    7.515658   13.171500   20.687159
Cu   18.827341   13.171500    5.655842
Cu    7.515658   13.171500    5.655842
Cu   18.827341   13.171500   20.687159
Cu   20.687159    7.515658   13.171500
Cu    5.655842   18.827341   13.171500
Cu    5.655842    7.515658   13.171500
Cu   20.687159   18.827341   13.171500
Cu   13.171500    7.515658   20.687159
Cu   13.171500   18.827341    5.655842
Cu   13.171500   18.827341   20.687159
Cu   13.171500    7.515658    5.655842
Cu   20.687159    0.000000   20.687159
Cu   20.687159   26.343000   20.687159
Cu    5.655842    0.000000    5.655842
Cu    5.655842   26.343000    5.655842
Cu   20.687159    0.000000    5.655842
Cu   20.687159   26.343000    5.655842
Cu    5.655842    0.000000   20.687159
Cu    5.655842   26.343000   20.687159
Cu   20.687159   20.687159    0.000000
Cu   20.687159   20.687159   26.343000
Cu    5.655842    5.655842    0.000000
Cu    5.655842    5.655842   26.343000
Cu    5.655842   20.687159    0.000000
Cu    5.655842   20.687159   26.343000
Cu   20.687159    5.655842    0.000000
Cu   20.687159    5.655842   26.343000
Cu   13.171500   20.687159    7.515658
Cu   13.171500    5.655842   18.827341
Cu   13.171500    5.655842    7.515658
Cu   13.171500   20.687159   18.827341
Cu   20.687159   13.171500    7.515658
Cu    5.655842   13.171500   18.827341
Cu   20.687159   13.171500   18.827341
Cu    5.655842   13.171500    7.515658
 O    8.340194    6.403984   24.967896
 O   18.002808   19.939018    1.375105
 O   18.002808   19.939018   24.967896
 O    8.340194    6.403984    1.375105
 O   18.002808    6.403984    1.375105
 O    8.340194   19.939018   24.967896
 O    8.340194   19.939018    1.375105
 O   18.002808    6.403984   24.967896
 O   24.967896    8.340194    6.403984
 O    1.375105   18.002808   19.939018
 O   24.967896   18.002808   19.939018
 O    1.375105    8.340194    6.403984
 O    1.375105   18.002808    6.403984
 O   24.967896    8.340194   19.939018
 O    1.375105    8.340194   19.939018
 O   24.967896   18.002808    6.403984
 O    6.403984   24.967896    8.340194
 O   19.939018    1.375105   18.002808
 O   19.939018   24.967896   18.002808
 O    6.403984    1.375105    8.340194
 O    6.403984    1.375105   18.002808
 O   19.939018   24.967896    8.340194
 O   19.939018    1.375105    8.340194
 O    6.403984   24.967896   18.002808
 O    6.403984    8.340194    1.375105
 O   19.939018   18.002808   24.967896
 O   19.939018   18.002808    1.375105
 O    6.403984    8.340194   24.967896
 O    6.403984   18.002808   24.967896
 O   19.939018    8.340194    1.375105
 O   19.939018    8.340194   24.967896
 O    6.403984   18.002808    1.375105
 O    8.340194   24.967896   19.939018
 O   18.002808    1.375105    6.403984
 O   18.002808   24.967896    6.403984
 O    8.340194    1.375105   19.939018
 O   18.002808    1.375105   19.939018
 O    8.340194   24.967896    6.403984
 O    8.340194    1.375105    6.403984
 O   18.002808   24.967896   19.939018
 O   24.967896    6.403984   18.002808
 O    1.375105   19.939018    8.340194
 O   24.967896   19.939018    8.340194
 O    1.375105    6.403984   18.002808
 O    1.375105    6.403984    8.340194
 O   24.967896   19.939018   18.002808
 O    1.375105   19.939018   18.002808
 O   24.967896    6.403984    8.340194
 O    8.340194   19.575483   11.796393
 O   18.002808    6.767517   14.546605
 O   18.002808    6.767517   11.796393
 O    8.340194   19.575483   14.546605
 O   18.002808   19.575483   14.546605
 O    8.340194    6.767517   11.796393
 O    8.340194    6.767517   14.546605
 O   18.002808   19.575483   11.796393
 O   24.967896   21.511694   19.575483
 O    1.375105    4.831306    6.767517
 O   24.967896    4.831306    6.767517
 O    1.375105   21.511694   19.575483
 O    1.375105    4.831306   19.575483
 O   24.967896   21.511694    6.767517
 O    1.375105   21.511694    6.767517
 O   24.967896    4.831306   19.575483
 O    6.403984   11.796393   21.511694
 O   19.939018   14.546605    4.831306
 O   19.939018   11.796393    4.831306
 O    6.403984   14.546605   21.511694
 O    6.403984   14.546605    4.831306
 O   19.939018   11.796393   21.511694
 O   19.939018   14.546605   21.511694
 O    6.403984   11.796393    4.831306
 O    6.403984   21.511694   14.546605
 O   19.939018    4.831306   11.796393
 O   19.939018    4.831306   14.546605
 O    6.403984   21.511694   11.796393
 O    6.403984    4.831306   11.796393
 O   19.939018   21.511694   14.546605
 O   19.939018   21.511694   11.796393
 O    6.403984    4.831306   14.546605
 O    8.340194   11.796393    6.767517
 O   18.002808   14.546605   19.575483
 O   18.002808   11.796393   19.575483
 O    8.340194   14.546605    6.767517
 O   18.002808   14.546605    6.767517
 O    8.340194   11.796393   19.575483
 O    8.340194   14.546605   19.575483
 O   18.002808   11.796393    6.767517
 O   24.967896   19.575483    4.831306
 O    1.375105    6.767517   21.511694
 O   24.967896    6.767517   21.511694
 O    1.375105   19.575483    4.831306
 O    1.375105   19.575483   21.511694
 O   24.967896    6.767517    4.831306
 O    1.375105    6.767517    4.831306
 O   24.967896   19.575483   21.511694
 O   21.511694    6.403984   11.796393
 O    4.831306   19.939018   14.546605
 O    4.831306   19.939018   11.796393
 O   21.511694    6.403984   14.546605
 O    4.831306    6.403984   14.546605
 O   21.511694   19.939018   11.796393
 O   21.511694   19.939018   14.546605
 O    4.831306    6.403984   11.796393
 O   11.796393    8.340194   19.575483
 O   14.546605   18.002808    6.767517
 O   11.796393   18.002808    6.767517
 O   14.546605    8.340194   19.575483
 O   14.546605   18.002808   19.575483
 O   11.796393    8.340194    6.767517
 O   14.546605    8.340194    6.767517
 O   11.796393   18.002808   19.575483
 O   19.575483   24.967896   21.511694
 O    6.767517    1.375105    4.831306
 O    6.767517   24.967896    4.831306
 O   19.575483    1.375105   21.511694
 O   19.575483    1.375105    4.831306
 O    6.767517   24.967896   21.511694
 O    6.767517    1.375105   21.511694
 O   19.575483   24.967896    4.831306
 O   19.575483    8.340194   14.546605
 O    6.767517   18.002808   11.796393
 O    6.767517   18.002808   14.546605
 O   19.575483    8.340194   11.796393
 O   19.575483   18.002808   11.796393
 O    6.767517    8.340194   14.546605
 O    6.767517    8.340194   11.796393
 O   19.575483   18.002808   14.546605
 O   21.511694   24.967896    6.767517
 O    4.831306    1.375105   19.575483
 O    4.831306   24.967896   19.575483
 O   21.511694    1.375105    6.767517
 O    4.831306    1.375105    6.767517
 O   21.511694   24.967896   19.575483
 O   21.511694    1.375105   19.575483
 O    4.831306   24.967896    6.767517
 O   11.796393    6.403984    4.831306
 O   14.546605   19.939018   21.511694
 O   11.796393   19.939018   21.511694
 O   14.546605    6.403984    4.831306
 O   14.546605    6.403984   21.511694
 O   11.796393   19.939018    4.831306
 O   14.546605   19.939018    4.831306
 O   11.796393    6.403984   21.511694
 O   21.511694   19.575483   24.967896
 O    4.831306    6.767517    1.375105
 O    4.831306    6.767517   24.967896
 O   21.511694   19.575483    1.375105
 O    4.831306   19.575483    1.375105
 O   21.511694    6.767517   24.967896
 O   21.511694    6.767517    1.375105
 O    4.831306   19.575483   24.967896
 O   11.796393   21.511694    6.403984
 O   14.546605    4.831306   19.939018
 O   11.796393    4.831306   19.939018
 O   14.546605   21.511694    6.403984
 O   14.546605    4.831306    6.403984
 O   11.796393   21.511694   19.939018
 O   14.546605   21.511694   19.939018
 O   11.796393    4.831306    6.403984
 O   19.575483   11.796393    8.340194
 O    6.767517   14.546605   18.002808
 O    6.767517   11.796393   18.002808
 O   19.575483   14.546605    8.340194
 O   19.575483   14.546605   18.002808
 O    6.767517   11.796393    8.340194
 O    6.767517   14.546605    8.340194
 O   19.575483   11.796393   18.002808
 O   19.575483   21.511694    1.375105
 O    6.767517    4.831306   24.967896
 O    6.767517    4.831306    1.375105
 O   19.575483   21.511694   24.967896
 O   19.575483    4.831306   24.967896
 O    6.767517   21.511694    1.375105
 O    6.767517   21.511694   24.967896
 O   19.575483    4.831306    1.375105
 O   21.511694   11.796393   19.939018
 O    4.831306   14.546605    6.403984
 O    4.831306   11.796393    6.403984
 O   21.511694   14.546605   19.939018
 O    4.831306   14.546605   19.939018
 O   21.511694   11.796393    6.403984
 O   21.511694   14.546605    6.403984
 O    4.831306   11.796393   19.939018
 O   11.796393   19.575483   18.002808
 O   14.546605    6.767517    8.340194
 O   11.796393    6.767517    8.340194
 O   14.546605   19.575483   18.002808
 O   14.546605   19.575483    8.340194
 O   11.796393    6.767517   18.002808
 O   14.546605    6.767517   18.002808
 O   11.796393   19.575483    8.340194
 C    7.818602    5.352898   24.533236
 C   18.524397   20.990103    1.809765
 C   18.524397   20.990103   24.533236
 C    7.818602    5.352898    1.809765
 C   18.524397    5.352898    1.809765
 C    7.818602   20.990103   24.533236
 C    7.818602   20.990103    1.809765
 C   18.524397    5.352898   24.533236
 C   24.533236    7.818602    5.352898
 C    1.809765   18.524397   20.990103
 C   24.533236   18.524397   20.990103
 C    1.809765    7.818602    5.352898
 C    1.809765   18.524397    5.352898
 C   24.533236    7.818602   20.990103
 C    1.809765    7.818602   20.990103
 C   24.533236   18.524397    5.352898
 C    5.352898   24.533236    7.818602
 C   20.990103    1.809765   18.524397
 C   20.990103   24.533236   18.524397
 C    5.352898    1.809765    7.818602
 C    5.352898    1.809765   18.524397
 C   20.990103   24.533236    7.818602
 C   20.990103    1.809765    7.818602
 C    5.352898   24.533236   18.524397
 C    5.352898    7.818602    1.809765
 C   20.990103   18.524397   24.533236
 C   20.990103   18.524397    1.809765
 C    5.352898    7.818602   24.533236
 C    5.352898   18.524397   24.533236
 C   20.990103    7.818602    1.809765
 C   20.990103    7.818602   24.533236
 C    5.352898   18.524397    1.809765
 C    7.818602   24.533236   20.990103
 C   18.524397    1.809765    5.352898
 C   18.524397   24.533236    5.352898
 C    7.818602    1.809765   20.990103
 C   18.524397    1.809765   20.990103
 C    7.818602   24.533236    5.352898
 C    7.818602    1.809765    5.352898
 C   18.524397   24.533236   20.990103
 C   24.533236    5.352898   18.524397
 C    1.809765   20.990103    7.818602
 C   24.533236   20.990103    7.818602
 C    1.809765    5.352898   18.524397
 C    1.809765    5.352898    7.818602
 C   24.533236   20.990103   18.524397
 C    1.809765   20.990103   18.524397
 C   24.533236    5.352898    7.818602
 C    7.818602   18.524397   11.361734
 C   18.524397    7.818603   14.981265
 C   18.524397    7.818603   11.361734
 C    7.818602   18.524397   14.981265
 C   18.524397   18.524397   14.981265
 C    7.818602    7.818603   11.361734
 C    7.818602    7.818603   14.981265
 C   18.524397   18.524397   11.361734
 C    5.352898   11.361734   20.990103
 C   20.990103   14.981265    5.352898
 C   20.990103   11.361734    5.352898
 C    5.352898   14.981265   20.990103
 C    5.352898   14.981265    5.352898
 C   20.990103   11.361734   20.990103
 C   20.990103   14.981265   20.990103
 C    5.352898   11.361734    5.352898
 C    5.352898   20.990103   14.981265
 C   20.990103    5.352898   11.361734
 C   20.990103    5.352898   14.981265
 C    5.352898   20.990103   11.361734
 C    5.352898    5.352898   11.361734
 C   20.990103   20.990103   14.981265
 C   20.990103   20.990103   11.361734
 C    5.352898    5.352898   14.981265
 C    7.818602   11.361734    7.818603
 C   18.524397   14.981265   18.524397
 C   18.524397   11.361734   18.524397
 C    7.818602   14.981265    7.818603
 C   18.524397   14.981265    7.818603
 C    7.818602   11.361734   18.524397
 C    7.818602   14.981265   18.524397
 C   18.524397   11.361734    7.818603
 C   11.361734    7.818602   18.524397
 C   14.981265   18.524397    7.818603
 C   11.361734   18.524397    7.818603
 C   14.981265    7.818602   18.524397
 C   14.981265   18.524397   18.524397
 C   11.361734    7.818602    7.818603
 C   14.981265    7.818602    7.818603
 C   11.361734   18.524397   18.524397
 C   11.361734    5.352898    5.352898
 C   14.981265   20.990103   20.990103
 C   11.361734   20.990103   20.990103
 C   14.981265    5.352898    5.352898
 C   14.981265    5.352898   20.990103
 C   11.361734   20.990103    5.352898
 C   14.981265   20.990103    5.352898
 C   11.361734    5.352898   20.990103
 C    8.482446    4.689054   23.366241
 C   17.860554   21.653948    2.976758
 C   17.860554   21.653948   23.366241
 C    8.482446    4.689054    2.976758
 C   17.860554    4.689054    2.976758
 C    8.482446   21.653948   23.366241
 C    8.482446   21.653948    2.976758
 C   17.860554    4.689054   23.366241
 C   23.366241    8.482446    4.689054
 C    2.976758   17.860554   21.653948
 C   23.366241   17.860554   21.653948
 C    2.976758    8.482446    4.689054
 C    2.976758   17.860554    4.689054
 C   23.366241    8.482446   21.653948
 C    2.976758    8.482446   21.653948
 C   23.366241   17.860554    4.689054
 C    4.689054   23.366241    8.482446
 C   21.653948    2.976758   17.860554
 C   21.653948   23.366241   17.860554
 C    4.689054    2.976758    8.482446
 C    4.689054    2.976758   17.860554
 C   21.653948   23.366241    8.482446
 C   21.653948    2.976758    8.482446
 C    4.689054   23.366241   17.860554
 C    4.689054    8.482446    2.976758
 C   21.653948   17.860554   23.366241
 C   21.653948   17.860554    2.976758
 C    4.689054    8.482446   23.366241
 C    4.689054   17.860554   23.366241
 C   21.653948    8.482446    2.976758
 C   21.653948    8.482446   23.366241
 C    4.689054   17.860554    2.976758
 C    8.482446   23.366241   21.653948
 C   17.860554    2.976758    4.689054
 C   17.860554   23.366241    4.689054
 C    8.482446    2.976758   21.653948
 C   17.860554    2.976758   21.653948
 C    8.482446   23.366241    4.689054
 C    8.482446    2.976758    4.689054
 C   17.860554   23.366241   21.653948
 C   23.366241    4.689054   17.860554
 C    2.976758   21.653948    8.482446
 C   23.366241   21.653948    8.482446
 C    2.976758    4.689054   17.860554
 C    2.976758    4.689054    8.482446
 C   23.366241   21.653948   17.860554
 C    2.976758   21.653948   17.860554
 C   23.366241    4.689054    8.482446
 C    8.482446   17.860554   10.194743
 C   17.860554    8.482446   16.148258
 C   17.860554    8.482446   10.194743
 C    8.482446   17.860554   16.148258
 C   17.860554   17.860554   16.148258
 C    8.482446    8.482446   10.194743
 C    8.482446    8.482446   16.148258
 C   17.860554   17.860554   10.194743
 C    4.689054   10.194743   21.653948
 C   21.653948   16.148258    4.689054
 C   21.653948   10.194743    4.689054
 C    4.689054   16.148258   21.653948
 C    4.689054   16.148258    4.689054
 C   21.653948   10.194743   21.653948
 C   21.653948   16.148258   21.653948
 C    4.689054   10.194743    4.689054
 C    4.689054   21.653948   16.148258
 C   21.653948    4.689054   10.194743
 C   21.653948    4.689054   16.148258
 C    4.689054   21.653948   10.194743
 C    4.689054    4.689054   10.194743
 C   21.653948   21.653948   16.148258
 C   21.653948   21.653948   10.194743
 C    4.689054    4.689054   16.148258
 C    8.482446   10.194743    8.482446
 C   17.860554   16.148258   17.860554
 C   17.860554   10.194743   17.860554
 C    8.482446   16.148258    8.482446
 C   17.860554   16.148258    8.482446
 C    8.482446   10.194743   17.860554
 C    8.482446   16.148258   17.860554
 C   17.860554   10.194743    8.482446
 C   10.194743    8.482446   17.860554
 C   16.148258   17.860554    8.482446
 C   10.194743   17.860554    8.482446
 C   16.148258    8.482446   17.860554
 C   16.148258   17.860554   17.860554
 C   10.194743    8.482446    8.482446
 C   16.148258    8.482446    8.482446
 C   10.194743   17.860554   17.860554
 C   10.194743    4.689054    4.689054
 C   16.148258   21.653948   21.653948
 C   10.194743   21.653948   21.653948
 C   16.148258    4.689054    4.689054
 C   16.148258    4.689054   21.653948
 C   10.194743   21.653948    4.689054
 C   16.148258   21.653948    4.689054
 C   10.194743    4.689054   21.653948
 C    9.628366    5.252794   22.799866
 C   16.714634   21.090206    3.543134
 C   16.714634   21.090206   22.799866
 C    9.628366    5.252794    3.543134
 C   16.714634    5.252794    3.543134
 C    9.628366   21.090206   22.799866
 C    9.628366   21.090206    3.543134
 C   16.714634    5.252794   22.799866
 C   22.799866    9.628366    5.252794
 C    3.543134   16.714634   21.090206
 C   22.799866   16.714634   21.090206
 C    3.543134    9.628366    5.252794
 C    3.543134   16.714634    5.252794
 C   22.799866    9.628366   21.090206
 C    3.543134    9.628366   21.090206
 C   22.799866   16.714634    5.252794
 C    5.252794   22.799866    9.628366
 C   21.090206    3.543134   16.714634
 C   21.090206   22.799866   16.714634
 C    5.252794    3.543134    9.628366
 C    5.252794    3.543134   16.714634
 C   21.090206   22.799866    9.628366
 C   21.090206    3.543134    9.628366
 C    5.252794   22.799866   16.714634
 C    5.252794    9.628366    3.543134
 C   21.090206   16.714634   22.799866
 C   21.090206   16.714634    3.543134
 C    5.252794    9.628366   22.799866
 C    5.252794   16.714634   22.799866
 C   21.090206    9.628366    3.543134
 C   21.090206    9.628366   22.799866
 C    5.252794   16.714634    3.543134
 C    9.628366   22.799866   21.090206
 C   16.714634    3.543134    5.252794
 C   16.714634   22.799866    5.252794
 C    9.628366    3.543134   21.090206
 C   16.714634    3.543134   21.090206
 C    9.628366   22.799866    5.252794
 C    9.628366    3.543134    5.252794
 C   16.714634   22.799866   21.090206
 C   22.799866    5.252794   16.714634
 C    3.543134   21.090206    9.628366
 C   22.799866   21.090206    9.628366
 C    3.543134    5.252794   16.714634
 C    3.543134    5.252794    9.628366
 C   22.799866   21.090206   16.714634
 C    3.543134   21.090206   16.714634
 C   22.799866    5.252794    9.628366
 C    9.628366   18.424295    9.628366
 C   16.714634    7.918706   16.714634
 C   16.714634    7.918706    9.628366
 C    9.628366   18.424295   16.714634
 C   16.714634   18.424295   16.714634
 C    9.628366    7.918706    9.628366
 C    9.628366    7.918706   16.714634
 C   16.714634   18.424295    9.628366
 C   22.799866   22.799866   18.424295
 C    3.543134    3.543133    7.918706
 C   22.799866    3.543133    7.918706
 C    3.543134   22.799866   18.424295
 C    3.543134    3.543133   18.424295
 C   22.799866   22.799866    7.918706
 C    3.543134   22.799866    7.918706
 C   22.799866    3.543133   18.424295
 C    9.628366    9.628366    7.918706
 C   16.714634   16.714634   18.424295
 C   16.714634    9.628366   18.424295
 C    9.628366   16.714634    7.918706
 C   16.714634   16.714634    7.918706
 C    9.628366    9.628366   18.424295
 C    9.628366   16.714634   18.424295
 C   16.714634    9.628366    7.918706
 C   22.799866   18.424295    3.543133
 C    3.543134    7.918706   22.799866
 C   22.799866    7.918706   22.799866
 C    3.543134   18.424295    3.543133
 C    3.543134   18.424295   22.799866
 C   22.799866    7.918706    3.543133
 C    3.543134    7.918706    3.543133
 C   22.799866   18.424295   22.799866
 C   18.424295   22.799866   22.799866
 C    7.918706    3.543134    3.543133
 C    7.918706   22.799866    3.543133
 C   18.424295    3.543134   22.799866
 C   18.424295    3.543134    3.543133
 C    7.918706   22.799866   22.799866
 C    7.918706    3.543134   22.799866
 C   18.424295   22.799866    3.543133
 C   18.424295    9.628366   16.714634
 C    7.918706   16.714634    9.628366
 C    7.918706   16.714634   16.714634
 C   18.424295    9.628366    9.628366
 C   18.424295   16.714634    9.628366
 C    7.918706    9.628366   16.714634
 C    7.918706    9.628366    9.628366
 C   18.424295   16.714634   16.714634
 H   10.015609    6.006204   23.187109
 H   16.327391   20.336796    3.155891
 H   16.327391   20.336796   23.187109
 H   10.015609    6.006204    3.155891
 H   16.327391    6.006204    3.155891
 H   10.015609   20.336796   23.187109
 H   10.015609   20.336796    3.155891
 H   16.327391    6.006204   23.187109
 H   23.187109   10.015609    6.006204
 H    3.155891   16.327391   20.336796
 H   23.187109   16.327391   20.336796
 H    3.155891   10.015609    6.006204
 H    3.155891   16.327391    6.006204
 H   23.187109   10.015609   20.336796
 H    3.155891   10.015609   20.336796
 H   23.187109   16.327391    6.006204
 H    6.006204   23.187109   10.015609
 H   20.336796    3.155891   16.327391
 H   20.336796   23.187109   16.327391
 H    6.006204    3.155891   10.015609
 H    6.006204    3.155891   16.327391
 H   20.336796   23.187109   10.015609
 H   20.336796    3.155891   10.015609
 H    6.006204   23.187109   16.327391
 H    6.006204   10.015609    3.155891
 H   20.336796   16.327391   23.187109
 H   20.336796   16.327391    3.155891
 H    6.006204   10.015609   23.187109
 H    6.006204   16.327391   23.187109
 H   20.336796   10.015609    3.155891
 H   20.336796   10.015609   23.187109
 H    6.006204   16.327391    3.155891
 H   10.015609   23.187109   20.336796
 H   16.327391    3.155891    6.006204
 H   16.327391   23.187109    6.006204
 H   10.015609    3.155891   20.336796
 H   16.327391    3.155891   20.336796
 H   10.015609   23.187109    6.006204
 H   10.015609    3.155891    6.006204
 H   16.327391   23.187109   20.336796
 H   23.187109    6.006204   16.327391
 H    3.155891   20.336796   10.015609
 H   23.187109   20.336796   10.015609
 H    3.155891    6.006204   16.327391
 H    3.155891    6.006204   10.015609
 H   23.187109   20.336796   16.327391
 H    3.155891   20.336796   16.327391
 H   23.187109    6.006204   10.015609
 H   10.015609   19.177704   10.015610
 H   16.327391    7.165297   16.327391
 H   16.327391    7.165297   10.015610
 H   10.015609   19.177704   16.327391
 H   16.327391   19.177704   16.327391
 H   10.015609    7.165297   10.015610
 H   10.015609    7.165297   16.327391
 H   16.327391   19.177704   10.015610
 H   23.187109   23.187109   19.177704
 H    3.155891    3.155891    7.165297
 H   23.187109    3.155891    7.165297
 H    3.155891   23.187109   19.177704
 H    3.155891    3.155891   19.177704
 H   23.187109   23.187109    7.165297
 H    3.155891   23.187109    7.165297
 H   23.187109    3.155891   19.177704
 H   10.015609   10.015610    7.165297
 H   16.327391   16.327391   19.177704
 H   16.327391   10.015610   19.177704
 H   10.015609   16.327391    7.165297
 H   16.327391   16.327391    7.165297
 H   10.015609   10.015610   19.177704
 H   10.015609   16.327391   19.177704
 H   16.327391   10.015610    7.165297
 H   23.187109   19.177704    3.155891
 H    3.155891    7.165297   23.187109
 H   23.187109    7.165297   23.187109
 H    3.155891   19.177704    3.155891
 H    3.155891   19.177704   23.187109
 H   23.187109    7.165297    3.155891
 H    3.155891    7.165297    3.155891
 H   23.187109   19.177704   23.187109
 H   19.177704   23.187109   23.187109
 H    7.165297    3.155891    3.155891
 H    7.165297   23.187109    3.155891
 H   19.177704    3.155891   23.187109
 H   19.177704    3.155891    3.155891
 H    7.165297   23.187109   23.187109
 H    7.165297    3.155891   23.187109
 H   19.177704   23.187109    3.155891
 H   19.177704   10.015609   16.327391
 H    7.165297   16.327391   10.015610
 H    7.165297   16.327391   16.327391
 H   19.177704   10.015609   10.015610
 H   19.177704   16.327391   10.015610
 H    7.165297   10.015609   16.327391
 H    7.165297   10.015609   10.015610
 H   19.177704   16.327391   16.327391
