44
POSCAR file written by Ovito 3.0.0-dev419
 S   14.198100   16.230801   15.516999
 O   12.715800   12.454900   13.797400
 O    9.648300   16.076000   14.183000
 O    9.884300   14.303000   15.596100
 O   17.159800   12.959500   16.216700
 O   11.304131   12.286414   17.174742
 N   12.521900   14.263100   15.301801
 N   15.567700   13.619300   14.662500
 C   13.690000   14.582300   16.127899
 C   12.433000   16.667900   15.113400
 C   11.832900   15.336000   14.613800
 C   14.385800   13.367500   15.499000
 C   13.081900   13.173900   14.699300
 C   11.780700   17.222401   16.387100
 C   12.422900   17.731300   14.013700
 C   10.370400   15.157601   14.870300
 C   16.872999   13.389300   15.102400
 C   17.902000   13.734500   14.043700
 C   18.867901   14.805100   14.477500
 C   18.566999   16.137300   14.231300
 C   20.045700   14.444400   15.117100
 C   19.461901   17.129000   14.633000
 C   20.940500   15.436200   15.519000
 C   20.648600   16.778601   15.276900
 H   13.483300   14.514800   17.199900
 H   12.003900   15.192600   13.538400
 H   14.549100   12.541500   16.202499
 H   11.734500   16.476101   17.188200
 H   12.327600   18.092100   16.770901
 H   10.755400   17.557199   16.194401
 H   12.933400   18.646700   14.335600
 H   12.915800   17.377899   13.100500
 H   11.399200   18.011900   13.743900
 H   15.435900   13.988700   13.723800
 H    8.685000   15.976201   14.338900
 H   18.445299   12.810900   13.805000
 H   17.422899   14.035400   13.104000
 H   17.644300   16.420601   13.732500
 H   20.281799   13.402100   15.312000
 H   19.234301   18.174299   14.445200
 H   21.864201   15.163401   16.020901
 H   21.345100   17.550800   15.590100
 H   10.618600   11.626113   17.358383
 H   10.815292   12.947476   16.642805
